VERS 140730 329 26155
MODE SEQ
NAME Lens
PFIL 0 0 0
LANG 0
UNIT MM X W X CM MR CPMM
ENPD 1.7857
ENVD 2.0E+1 1 0
GFAC 0 0
GCAT SCHOTT MISC OHARA
RAIM 0 1 1 1 0 1 0 0 0
PUSH 0 0 0 0 0 0
SDMA 0 1 0
FTYP 0 0 4 3 0 0 0
ROPD 2
PICB 1
XFLN 0 0 0 0 0 0 0 0 0 0 0 0
YFLN 0 8.0E+1 1.1E+2 1.35E+2 0 0 0 0 0 0 0 0
FWGN 1 1 1 1 1 1 1 1 1 1 1 1
VDXN 0 0 0 0 0 0 0 0 0 0 0 0
VDYN 0 0 0 0 0 0 0 0 0 0 0 0
VCXN 0 0 0 0 0 0 0 0 0 0 0 0
VCYN 0 0 0 0 0 0 0 0 0 0 0 0
VANN 0 0 0 0 0 0 0 0 0 0 0 0
WAVM 1 4.861327E-1 1
WAVM 2 5.875618E-1 1
WAVM 3 6.562725E-1 1
WAVM 4 5.5E-1 1
WAVM 5 5.5E-1 1
WAVM 6 5.5E-1 1
WAVM 7 5.5E-1 1
WAVM 8 5.5E-1 1
WAVM 9 5.5E-1 1
WAVM 10 5.5E-1 1
WAVM 11 5.5E-1 1
WAVM 12 5.5E-1 1
WAVM 13 5.5E-1 1
WAVM 14 5.5E-1 1
WAVM 15 5.5E-1 1
WAVM 16 5.5E-1 1
WAVM 17 5.5E-1 1
WAVM 18 5.5E-1 1
WAVM 19 5.5E-1 1
WAVM 20 5.5E-1 1
WAVM 21 5.5E-1 1
WAVM 22 5.5E-1 1
WAVM 23 5.5E-1 1
WAVM 24 5.5E-1 1
PWAV 2
POLS 1 0 1 0 0 1 0
GLRS 1 0
GSTD 0 100.000 100.000 100.000 100.000 100.000 100.000 0 1 1 0 0 1 1 1 1 1 1
NSCD 100 500 0 1.0E-6 5 1.0E-6 0 0 0 0 0 0 1000000 0 2
COFN QF "COATING.DAT" "SCATTER_PROFILE.DAT" "ABG_DATA.DAT" "PROFILE.GRD"
COFN COATING.DAT SCATTER_PROFILE.DAT ABG_DATA.DAT PROFILE.GRD
SURF 0
  TYPE STANDARD
  CURV 0.0 0 0 0 0 ""
  HIDE 0 0 0 0 0 0 0 0 0 0
  MIRR 2 0
  SLAB 6
  DISZ INFINITY
  DIAM 0 0 0 0 1 ""
  POPS 0 0 0 0 0 0 0 0 1 1 1 1 0 0 0 0
SURF 1
  TYPE STANDARD
  CURV 4.889067068222041300E-003 0 0 0 0 ""
  HIDE 0 0 0 0 0 0 0 0 0 0
  MIRR 2 0
  SLAB 12
  DISZ 1.02E+1
  GLAS N-BK7 0 0 1.5 4.0E+1 0 0 0 0 0 0 
  DIAM 1.752850126806E+2 0 0 0 1 ""
  POPS 0 0 0 0 0 0 0 0 1 1 1 1 0 0 0 0
SURF 2
  TYPE STANDARD
  CURV 1.192193516851655300E-002 0 0 0 0 ""
  HIDE 0 0 0 0 0 0 0 0 0 0
  MIRR 2 0
  SLAB 1
  DISZ 4.3E+1
  DIAM 8.336965876721E+1 0 0 0 1 ""
  POPS 0 0 0 0 0 0 0 0 1 1 1 1 0 0 0 0
SURF 3
  TYPE STANDARD
  CURV 8.872405930316124400E-003 0 0 0 0 ""
  HIDE 0 0 0 0 0 0 0 0 0 0
  MIRR 2 0
  SLAB 16
  DISZ 5.7
  GLAS N-SK4 0 0 1.612717612604 5.863433032314E+1 -4.E-4 1 1 1 0 0 
  DIAM 7.586572796055E+1 0 0 0 1 ""
  POPS 0 0 0 0 0 0 0 0 1 1 1 1 0 0 0 0
SURF 4
  TYPE STANDARD
  CURV 2.593092002904262900E-002 0 0 0 0 ""
  HIDE 0 0 0 0 0 0 0 0 0 0
  MIRR 2 0
  SLAB 15
  DISZ 3.11E+1
  DIAM 3.812078011467E+1 0 0 0 1 ""
  POPS 0 0 0 0 0 0 0 0 1 1 1 1 0 0 0 0
SURF 5
  TYPE STANDARD
  CURV 8.782869890565441300E-003 0 0 0 0 ""
  HIDE 0 0 0 0 0 0 0 0 0 0
  MIRR 2 0
  SLAB 14
  DISZ 4.9
  GLAS N-SK16 0 0 1.603110433749 6.059681904653E+1 -3.E-4 1 1 1 0 0 
  DIAM 3.002326432531E+1 0 0 0 1 ""
  POPS 0 0 0 0 0 0 0 0 1 1 1 1 0 0 0 0
SURF 6
  TYPE STANDARD
  CURV 5.504486156217317000E-002 0 0 0 0 ""
  HIDE 0 0 0 0 0 0 0 0 0 0
  MIRR 2 0
  SLAB 13
  DISZ 1.96E+1
  DIAM 1.686071030975E+1 0 0 0 1 ""
  POPS 0 0 0 0 0 0 0 0 1 1 1 1 0 0 0 0
SURF 7
  TYPE STANDARD
  CURV -1.187620246549963300E-002 0 0 0 0 ""
  HIDE 0 0 0 0 0 0 0 0 0 0
  MIRR 2 0
  SLAB 11
  DISZ 1.6
  GLAS N-FK5 0 0 1.487490003679 7.04057711748E+1 3.6E-3 1 1 1 0 0 
  DIAM 1.221176847007E+1 0 0 0 1 ""
  POPS 0 0 0 0 0 0 0 0 1 1 1 1 0 0 0 0
SURF 8
  TYPE STANDARD
  CURV 4.596221905593601800E-002 0 0 0 0 ""
  HIDE 0 0 0 0 0 0 0 0 0 0
  MIRR 2 0
  SLAB 10
  DISZ 5.7
  GLAS N-SF11 0 0 1.78471994231 2.567999783509E+1 1.5E-2 1 1 1 0 0 
  DIAM 1.054141776589E+1 0 0 0 1 ""
  POPS 0 0 0 0 0 0 0 0 1 1 1 1 0 0 0 0
SURF 9
  TYPE STANDARD
  CURV -2.444001808561338000E-003 0 0 0 0 ""
  HIDE 0 0 0 0 0 0 0 0 0 0
  MIRR 2 0
  SLAB 9
  DISZ 1.6
  GLAS L-LAH87 0 0 1.770300200167 4.740190428393E+1 -8.6E-3 1 1 1 0 0 
  DIAM 9.520361757108 0 0 0 1 ""
  POPS 0 0 0 0 0 0 0 0 1 1 1 1 0 0 0 0
SURF 10
  TYPE STANDARD
  CURV 1.321073768759247600E-002 0 0 0 0 ""
  HIDE 0 0 0 0 0 0 0 0 0 0
  MIRR 2 0
  SLAB 7
  DISZ 4.1
  DIAM 8.725134117652 0 0 0 1 ""
  POPS 0 0 0 0 0 0 0 0 1 1 1 1 0 0 0 0
SURF 11
  TYPE STANDARD
  CURV 0.0 0 0 0 0 ""
  HIDE 0 0 0 0 0 0 0 0 0 0
  MIRR 2 0
  SLAB 5
  DISZ 2.5
  GLAS S-NSL3 0 0 1.51743 5.85E+1 -1.1E-3 1 1 1 0 0 
  DIAM 6.627691510127 0 0 0 1 ""
  POPS 0 0 0 0 0 0 0 0 1 1 1 1 0 0 0 0
SURF 12
  TYPE STANDARD
  CURV 0.0 0 0 0 0 ""
  HIDE 0 0 0 0 0 0 0 0 0 0
  MIRR 2 0
  SLAB 4
  DISZ 4.1
  DIAM 5.746362670143 0 0 0 1 ""
  POPS 0 0 0 0 0 0 0 0 1 1 1 1 0 0 0 0
SURF 13
  STOP
  TYPE STANDARD
  CURV 0.0 0 0 0 0 ""
  HIDE 0 0 0 0 0 0 0 0 0 0
  MIRR 2 0
  SLAB 23
  DISZ 4.1
  DIAM 3.354595812216 0 0 0 1 ""
  POPS 0 0 0 0 0 0 0 0 1 1 1 1 0 0 0 0
SURF 14
  TYPE STANDARD
  CURV -2.444000016619200400E-004 0 0 0 0 ""
  HIDE 0 0 0 0 0 0 0 0 0 0
  MIRR 2 0
  SLAB 3
  DISZ 7.2
  GLAS N-SF11 0 0 1.5 4.0E+1 0 0 0 0 0 0 
  DIAM 6.39551011672 0 0 0 1 ""
  POPS 0 0 0 0 0 0 0 0 1 1 1 1 0 0 0 0
SURF 15
  TYPE STANDARD
  CURV 5.312931675698650400E-002 0 0 0 0 ""
  HIDE 0 0 0 0 0 0 0 0 0 0
  MIRR 2 0
  SLAB 2
  DISZ 1.43E+1
  GLAS N-LAF35 0 0 1.743299778941 4.939936968095E+1 -8.4E-3 1 1 1 0 0 
  DIAM 9.996770572714 0 0 0 1 ""
  POPS 0 0 0 0 0 0 0 0 1 1 1 1 0 0 0 0
SURF 16
  TYPE STANDARD
  CURV -1.396570024021004400E-002 0 0 0 0 ""
  HIDE 0 0 0 0 0 0 0 0 0 0
  MIRR 2 0
  SLAB 22
  DISZ 2.0E-1
  DIAM 1.390842919483E+1 0 0 0 1 ""
  POPS 0 0 0 0 0 0 0 0 1 1 1 1 0 0 0 0
SURF 17
  TYPE STANDARD
  CURV -2.572631828086450700E-003 0 0 0 0 ""
  HIDE 0 0 0 0 0 0 0 0 0 0
  MIRR 2 0
  SLAB 21
  DISZ 6.1
  GLAS L-LAH87 0 0 1.5 4.0E+1 0 0 0 0 0 0 
  DIAM 1.461848040534E+1 0 0 0 1 ""
  POPS 0 0 0 0 0 0 0 0 1 1 1 1 0 0 0 0
SURF 18
  TYPE STANDARD
  CURV -2.715546503733876100E-002 0 0 0 0 ""
  HIDE 0 0 0 0 0 0 0 0 0 0
  MIRR 2 0
  SLAB 20
  DISZ 2.19E+1
  DIAM 1.551392105994E+1 0 0 0 1 ""
  POPS 0 0 0 0 0 0 0 0 1 1 1 1 0 0 0 0
SURF 19
  TYPE STANDARD
  CURV 1.222000904280669300E-002 0 0 0 0 ""
  HIDE 0 0 0 0 0 0 0 0 0 0
  MIRR 2 0
  SLAB 19
  DISZ 3.3
  GLAS N-SF11 0 0 1.5 4.0E+1 0 0 0 0 0 0 
  DIAM 2.0786919149E+1 0 0 0 1 ""
  POPS 0 0 0 0 0 0 0 0 1 1 1 1 0 0 0 0
SURF 20
  TYPE STANDARD
  CURV 3.675254511374912600E-002 0 0 0 0 ""
  HIDE 0 0 0 0 0 0 0 0 0 0
  MIRR 2 0
  SLAB 18
  DISZ 2.21E+1
  GLAS N-SK16 0 0 1.5 4.0E+1 0 0 0 0 0 0 
  DIAM 2.06543034986E+1 0 0 0 1 ""
  POPS 0 0 0 0 0 0 0 0 1 1 1 1 0 0 0 0
SURF 21
  TYPE STANDARD
  CURV -1.203253597728257100E-002 0 0 0 0 ""
  HIDE 0 0 0 0 0 0 0 0 0 0
  MIRR 2 0
  SLAB 17
  DISZ 2.264534611889E+1
  DIAM 2.169598097575E+1 0 0 0 1 ""
  POPS 0 0 0 0 0 0 0 0 1 1 1 1 0 0 0 0
SURF 22
  TYPE STANDARD
  CURV 0.0 0 0 0 0 ""
  HIDE 0 0 0 0 0 0 0 0 0 0
  MIRR 2 0
  SLAB 8
  DISZ 0
  DIAM 2.217578027013E+1 0 0 0 1 ""
  POPS 0 0 0 0 0 0 0 0 1 1 1 1 0 0 0 0
DMFS 0 0 0 0 0 0 0 0 0 0
BLNK Default merit function: RMS spot radius centroid GQ 3 rings 6 arms
BLNK No default air thickness boundary constraints.
BLNK No default glass thickness boundary constraints.
BLNK Operands for field 1.
TRAC 0 1 0 0 3.357106870197E-1 0 0 2.908882086657E-1 0 0
TRAC 0 1 0 0 7.071067811865E-1 0 0 4.654211338652E-1 0 0
TRAC 0 1 0 0 9.419651451199E-1 0 0 2.908882086657E-1 0 0
TRAC 0 1 0 0 3.357106870197E-1 0 0 2.908882086657E-1 0 0
TRAC 0 1 0 0 7.071067811865E-1 0 0 4.654211338652E-1 0 0
TRAC 0 1 0 0 9.419651451199E-1 0 0 2.908882086657E-1 0 0
TRAC 0 1 0 0 3.357106870197E-1 0 0 2.908882086657E-1 0 0
TRAC 0 1 0 0 7.071067811865E-1 0 0 4.654211338652E-1 0 0
TRAC 0 1 0 0 9.419651451199E-1 0 0 2.908882086657E-1 0 0
TOL TOFF   0   0              0              0   0 0 0
MNUM 1 1
MOFF   0   1 "" 0 0 0 1 1 0 0.0 ""
