VERS 160720 129 100027
MODE SEQ
NAME AI NIKKOR 50mm f/1.8S
NOTE 0 According to http://nikkor.com/story/0060/
PFIL 0 0 0
LANG 0
UNIT MM X W X CM MR CPMM
FNUM 1.80E+00 0
ENVD 2.00E+01 1 0
GFAC 0 0
GCAT OHARA-CALDWELL 
RAIM 0 2 1 1 0 1 0 0 0 1
PUSH -2.227787853094E+00 0 0 0 0 0
SDMA 0 1 0
OMMA 1 1
FTYP 3 0 3 3 0 0 0
ROPD 2
PICB 1
XFLN 0 0 0 0 0 0 0 0 0 0 0 0
YFLN 0 1.50E+01 2.10E+01 0 0 0 0 0 0 0 0 0
FWGN 1 1 1 1 1 1 1 1 1 1 1 1
VDXN 0 0 0 0 0 0 0 0 0 0 0 0
VDYN 0 0 0 0 0 0 0 0 0 0 0 0
VCXN 0 0 0 0 0 0 0 0 0 0 0 0
VCYN 0 0 0 0 0 0 0 0 0 0 0 0
VANN 0 0 0 0 0 0 0 0 0 0 0 0
WAVM 1 4.8613270E-01 1
WAVM 2 5.8756180E-01 1
WAVM 3 6.5627250E-01 1
WAVM 4 5.50E-01 1
WAVM 5 5.50E-01 1
WAVM 6 5.50E-01 1
WAVM 7 5.50E-01 1
WAVM 8 5.50E-01 1
WAVM 9 5.50E-01 1
WAVM 10 5.50E-01 1
WAVM 11 5.50E-01 1
WAVM 12 5.50E-01 1
WAVM 13 5.50E-01 1
WAVM 14 5.50E-01 1
WAVM 15 5.50E-01 1
WAVM 16 5.50E-01 1
WAVM 17 5.50E-01 1
WAVM 18 5.50E-01 1
WAVM 19 5.50E-01 1
WAVM 20 5.50E-01 1
WAVM 21 5.50E-01 1
WAVM 22 5.50E-01 1
WAVM 23 5.50E-01 1
WAVM 24 5.50E-01 1
PWAV 2
POLS 1 0 1 0 0 1 0
GLRS 7 0
GSTD 0 100.000 100.000 100.000 100.000 100.000 100.000 0 1 1 0 0 1 1 1 1 1 1
NSCD 100 500 0 1.00E-03 5 1.00E-06 0 0 0 0 0 0 1000000 0 2
COFN QF "COATING.DAT" "SCATTER_PROFILE.DAT" "ABG_DATA.DAT" "PROFILE.GRD"
COFN COATING.DAT SCATTER_PROFILE.DAT ABG_DATA.DAT PROFILE.GRD
SURF 0
  TYPE STANDARD
  CURV 0.0 0 0 0 0 ""
  HIDE 0 0 0 0 0 0 0 0 0 0
  MIRR 2 0
  SLAB 1
  DISZ INFINITY
  DIAM 0 0 0 0 1 ""
  MEMA 0 0 0 0 1 ""
  POPS 0 0 0 0 0 0 0 0 1 1 1 1 0 0 0 0
SURF 1
  TYPE STANDARD
  CURV 1.960974945821346987E-02 0 0 0 0 ""
  HIDE 0 0 0 0 0 0 0 0 0 0
  MIRR 2 0
  SLAB 2
  DISZ 3.467330978232E+00
  GLAS S-LAL12 3 0 1.516329924761E+00 6.414202197113E+01 -2.40E-03 0 0 0 0 0 
  DIAM 1.506249297240E+01 1 0 0 1 ""
  MEMA 1.506249297240E+01 0 0 0 1 ""
  POPS 0 0 0 0 0 0 0 0 1 1 1 1 0 0 0 0
  FLAP 0 1.506249297240E+01 0
SURF 2
  TYPE STANDARD
  CURV 0.0 0 0 0 0 ""
  HIDE 0 0 0 0 0 0 0 0 0 0
  MIRR 2 0
  SLAB 2
  DISZ 1.898721277780E-01
  DIAM 1.506249297240E+01 1 0 0 1 ""
  MEMA 1.506249297240E+01 0 0 0 1 ""
  POPS 0 0 0 0 0 0 0 0 1 1 1 1 0 0 0 0
  FLAP 0 1.506249297240E+01 0
SURF 3
  TYPE STANDARD
  CURV 4.967041248803843317E-02 0 0 0 0 ""
  HIDE 0 0 0 0 0 0 0 0 0 0
  MIRR 2 0
  SLAB 2
  DISZ 4.124241343781E+00
  GLAS H-LAF50B 3 0 1.516329924761E+00 6.414202197113E+01 -2.40E-03 0 0 0 0 0 
  DIAM 1.353441397520E+01 1 0 0 1 ""
  MEMA 1.353441397520E+01 0 0 0 1 ""
  POPS 0 0 0 0 0 0 0 0 1 1 1 1 0 0 0 0
  FLAP 0 1.353441397520E+01 0
SURF 4
  TYPE STANDARD
  CURV 2.899391797326212813E-02 0 0 0 0 ""
  HIDE 0 0 0 0 0 0 0 0 0 0
  MIRR 2 0
  SLAB 2
  DISZ 1.336224037815E+00
  DIAM 1.140601822910E+01 1 0 0 1 ""
  MEMA 1.353441397520E+01 0 0 0 1 ""
  POPS 0 0 0 0 0 0 0 0 1 1 1 1 0 0 0 0
  FLAP 0 1.140601822910E+01 0
SURF 5
  TYPE STANDARD
  CURV 1.424793881858962656E-02 0 0 0 0 ""
  HIDE 0 0 0 0 0 0 0 0 0 0
  MIRR 2 0
  SLAB 2
  DISZ 9.879161511319E-01
  GLAS S-TIM27 3 0 1.487489934771E+00 7.023625207231E+01 2.20E-03 0 0 0 0 0 
  DIAM 1.14333053545E+01 1 0 0 1 ""
  MEMA 1.14333053545E+01 0 0 0 1 ""
  POPS 0 0 0 0 0 0 0 0 1 1 1 1 0 0 0 0
  FLAP 0 1.14333053545E+01 0
SURF 6
  TYPE STANDARD
  CURV 6.168561637180817320E-02 0 0 0 0 ""
  HIDE 0 0 0 0 0 0 0 0 0 0
  MIRR 2 0
  SLAB 2
  DISZ 6.027828835399E+00
  DIAM 1.069655298040E+01 1 0 0 1 ""
  MEMA 1.14333053545E+01 0 0 0 1 ""
  POPS 0 0 0 0 0 0 0 0 1 1 1 1 0 0 0 0
  FLAP 0 1.069655298040E+01 0
SURF 7
  STOP
  TYPE STANDARD
  CURV 0.0 0 0 0 0 ""
  HIDE 0 0 0 0 0 0 0 0 0 0
  MIRR 2 0
  SLAB 2
  DISZ 5.486665866624E+00
  DIAM 1.08875628555E+01 1 0 0 1 ""
  MEMA 1.08875628555E+01 0 0 0 1 ""
  POPS 0 0 0 0 0 0 0 0 1 1 1 1 0 0 0 0
SURF 8
  TYPE STANDARD
  CURV -5.962349516264566635E-02 0 0 0 0 ""
  HIDE 0 0 0 0 0 0 0 0 0 0
  MIRR 2 0
  SLAB 2
  DISZ 9.919491799359E-01
  GLAS S-TIM27 3 0 1.487489934771E+00 7.023625207231E+01 2.20E-03 0 0 0 0 0 
  DIAM 1.061469160555E+01 1 0 0 1 ""
  MEMA 1.227920622750E+01 0 0 0 1 ""
  POPS 0 0 0 0 0 0 0 0 1 1 1 1 0 0 0 0
  FLAP 0 1.061469160555E+01 0
SURF 9
  TYPE STANDARD
  CURV -4.701322618466671939E-03 0 0 0 0 ""
  HIDE 0 0 0 0 0 0 0 0 0 0
  MIRR 2 0
  SLAB 2
  DISZ 4.933834166551E+00
  GLAS S-LAL18 3 0 1.516329924761E+00 6.414202197113E+01 -2.40E-03 0 0 0 0 0 
  DIAM 1.14333053545E+01 1 0 0 1 ""
  MEMA 1.227920622750E+01 0 0 0 1 ""
  POPS 0 0 0 0 0 0 0 0 1 1 1 1 0 0 0 0
  FLAP 0 1.14333053545E+01 0
SURF 10
  TYPE STANDARD
  CURV -4.779204674878207576E-02 0 0 0 0 ""
  HIDE 0 0 0 0 0 0 0 0 0 0
  MIRR 2 0
  SLAB 2
  DISZ 1.678704794836E-01
  DIAM 1.227920622750E+01 1 0 0 1 ""
  MEMA 1.227920622750E+01 0 0 0 1 ""
  POPS 0 0 0 0 0 0 0 0 1 1 1 1 0 0 0 0
  FLAP 0 1.227920622750E+01 0
SURF 11
  TYPE STANDARD
  CURV 2.479919656319027471E-03 0 0 0 0 ""
  HIDE 0 0 0 0 0 0 0 0 0 0
  MIRR 2 0
  SLAB 2
  DISZ 2.849664030246E+00
  GLAS S-LAH64 3 0 1.516329924761E+00 6.414202197113E+01 -2.40E-03 0 0 0 0 0 
  DIAM 1.241564185225E+01 1 0 0 1 ""
  MEMA 1.241564185225E+01 0 0 0 1 ""
  POPS 0 0 0 0 0 0 0 0 1 1 1 1 0 0 0 0
  FLAP 0 1.241564185225E+01 0
SURF 12
  TYPE STANDARD
  CURV -1.875155873574567769E-02 0 0 0 0 ""
  HIDE 0 0 0 0 0 0 0 0 0 0
  MIRR 2 0
  SLAB 2
  DISZ 3.714951845779E+01
  MAZH 0 7.00E-01
  DIAM 1.241564185225E+01 1 0 0 1 ""
  MEMA 1.241564185225E+01 0 0 0 1 ""
  POPS 0 0 0 0 0 0 0 0 1 1 1 1 0 0 0 0
  FLAP 0 1.241564185225E+01 0
SURF 13
  TYPE STANDARD
  CURV 0.0 0 0 0 0 ""
  HIDE 0 0 0 0 0 0 0 0 0 0
  MIRR 2 0
  SLAB 3
  DISZ 0
  DIAM 2.202761659854E+01 0 0 0 1 ""
  MEMA 2.202761659854E+01 0 0 0 1 ""
  POPS 0 0 0 0 0 0 0 0 1 1 1 1 0 0 0 0
DMFS 0 0 0 0 0 0 0 0 0 0
BLNK Sequential merit function: RMS spot radius centroid GQ 7 rings 12 arms
BLNK No air or glass constraints.
BLNK Operands for field 1.
TRAC 0 1 0 0 1.595181614382E-01 0 0 2.259938991480E-02 0 0
TRAC 0 1 0 0 3.594918736221E-01 0 0 4.881780017068E-02 0 0
TRAC 0 1 0 0 5.450480935764E-01 0 0 6.664191564370E-02 0 0
TRAC 0 1 0 0 7.071067811865E-01 0 0 7.294763894050E-02 0 0
TRAC 0 1 0 0 8.384047803351E-01 0 0 6.664191564370E-02 0 0
TRAC 0 1 0 0 9.331482158798E-01 0 0 4.881780017068E-02 0 0
TRAC 0 1 0 0 9.871949939963E-01 0 0 2.259938991480E-02 0 0
TRAC 0 2 0 0 1.595181614382E-01 0 0 2.259938991480E-02 0 0
TRAC 0 2 0 0 3.594918736221E-01 0 0 4.881780017068E-02 0 0
TRAC 0 2 0 0 5.450480935764E-01 0 0 6.664191564370E-02 0 0
TRAC 0 2 0 0 7.071067811865E-01 0 0 7.294763894050E-02 0 0
TRAC 0 2 0 0 8.384047803351E-01 0 0 6.664191564370E-02 0 0
TRAC 0 2 0 0 9.331482158798E-01 0 0 4.881780017068E-02 0 0
TRAC 0 2 0 0 9.871949939963E-01 0 0 2.259938991480E-02 0 0
TRAC 0 3 0 0 1.595181614382E-01 0 0 2.259938991480E-02 0 0
TRAC 0 3 0 0 3.594918736221E-01 0 0 4.881780017068E-02 0 0
TRAC 0 3 0 0 5.450480935764E-01 0 0 6.664191564370E-02 0 0
TRAC 0 3 0 0 7.071067811865E-01 0 0 7.294763894050E-02 0 0
TRAC 0 3 0 0 8.384047803351E-01 0 0 6.664191564370E-02 0 0
TRAC 0 3 0 0 9.331482158798E-01 0 0 4.881780017068E-02 0 0
TRAC 0 3 0 0 9.871949939963E-01 0 0 2.259938991480E-02 0 0
BLNK Operands for field 2.
TRAC 0 1 0 7.142857142857E-01 4.128633821994E-02 1.540827118953E-01 0 3.76656498580E-03 0 0
TRAC 0 1 0 7.142857142857E-01 9.304334345298E-02 3.472424850726E-01 0 8.136300028446E-03 0 0
TRAC 0 1 0 7.142857142857E-01 1.410688271144E-01 5.264760301551E-01 0 1.110698594062E-02 0 0
TRAC 0 1 0 7.142857142857E-01 1.830127018922E-01 6.830127018922E-01 0 1.215793982342E-02 0 0
TRAC 0 1 0 7.142857142857E-01 2.169951246557E-01 8.098368302099E-01 0 1.110698594062E-02 0 0
TRAC 0 1 0 7.142857142857E-01 2.415165301731E-01 9.013519614739E-01 0 8.136300028446E-03 0 0
TRAC 0 1 0 7.142857142857E-01 2.555048656761E-01 9.535571402843E-01 0 3.76656498580E-03 0 0
TRAC 0 1 0 7.142857142857E-01 1.127963736754E-01 1.127963736754E-01 0 3.76656498580E-03 0 0
TRAC 0 1 0 7.142857142857E-01 2.541991416196E-01 2.541991416196E-01 0 8.136300028446E-03 0 0
TRAC 0 1 0 7.142857142857E-01 3.854072030470E-01 3.854072030470E-01 0 1.110698594062E-02 0 0
TRAC 0 1 0 7.142857142857E-01 5.00E-01 5.00E-01 0 1.215793982342E-02 0 0
TRAC 0 1 0 7.142857142857E-01 5.928417055541E-01 5.928417055541E-01 0 1.110698594062E-02 0 0
TRAC 0 1 0 7.142857142857E-01 6.59835431380E-01 6.59835431380E-01 0 8.136300028446E-03 0 0
TRAC 0 1 0 7.142857142857E-01 6.980522746082E-01 6.980522746082E-01 0 3.76656498580E-03 0 0
TRAC 0 1 0 7.142857142857E-01 1.540827118953E-01 4.128633821994E-02 0 3.76656498580E-03 0 0
TRAC 0 1 0 7.142857142857E-01 3.472424850726E-01 9.304334345298E-02 0 8.136300028446E-03 0 0
TRAC 0 1 0 7.142857142857E-01 5.264760301551E-01 1.410688271144E-01 0 1.110698594062E-02 0 0
TRAC 0 1 0 7.142857142857E-01 6.830127018922E-01 1.830127018922E-01 0 1.215793982342E-02 0 0
TRAC 0 1 0 7.142857142857E-01 8.098368302099E-01 2.169951246557E-01 0 1.110698594062E-02 0 0
TRAC 0 1 0 7.142857142857E-01 9.013519614739E-01 2.415165301731E-01 0 8.136300028446E-03 0 0
TRAC 0 1 0 7.142857142857E-01 9.535571402843E-01 2.555048656761E-01 0 3.76656498580E-03 0 0
TRAC 0 1 0 7.142857142857E-01 1.540827118953E-01 -4.128633821994E-02 0 3.76656498580E-03 0 0
TRAC 0 1 0 7.142857142857E-01 3.472424850726E-01 -9.304334345298E-02 0 8.136300028446E-03 0 0
TRAC 0 1 0 7.142857142857E-01 5.264760301551E-01 -1.410688271144E-01 0 1.110698594062E-02 0 0
TRAC 0 1 0 7.142857142857E-01 6.830127018922E-01 -1.830127018922E-01 0 1.215793982342E-02 0 0
TRAC 0 1 0 7.142857142857E-01 8.098368302099E-01 -2.169951246557E-01 0 1.110698594062E-02 0 0
TRAC 0 1 0 7.142857142857E-01 9.013519614739E-01 -2.415165301731E-01 0 8.136300028446E-03 0 0
TRAC 0 1 0 7.142857142857E-01 9.535571402843E-01 -2.555048656761E-01 0 3.76656498580E-03 0 0
TRAC 0 1 0 7.142857142857E-01 1.127963736754E-01 -1.127963736754E-01 0 3.76656498580E-03 0 0
TRAC 0 1 0 7.142857142857E-01 2.541991416196E-01 -2.541991416196E-01 0 8.136300028446E-03 0 0
TRAC 0 1 0 7.142857142857E-01 3.854072030470E-01 -3.854072030470E-01 0 1.110698594062E-02 0 0
TRAC 0 1 0 7.142857142857E-01 5.00E-01 -5.0E-01 0 1.215793982342E-02 0 0
TRAC 0 1 0 7.142857142857E-01 5.928417055541E-01 -5.928417055541E-01 0 1.110698594062E-02 0 0
TRAC 0 1 0 7.142857142857E-01 6.59835431380E-01 -6.59835431380E-01 0 8.136300028446E-03 0 0
TRAC 0 1 0 7.142857142857E-01 6.980522746082E-01 -6.980522746082E-01 0 3.76656498580E-03 0 0
TRAC 0 1 0 7.142857142857E-01 4.128633821994E-02 -1.540827118953E-01 0 3.76656498580E-03 0 0
TRAC 0 1 0 7.142857142857E-01 9.304334345298E-02 -3.472424850726E-01 0 8.136300028446E-03 0 0
TRAC 0 1 0 7.142857142857E-01 1.410688271144E-01 -5.264760301551E-01 0 1.110698594062E-02 0 0
TRAC 0 1 0 7.142857142857E-01 1.830127018922E-01 -6.830127018922E-01 0 1.215793982342E-02 0 0
TRAC 0 1 0 7.142857142857E-01 2.169951246557E-01 -8.098368302099E-01 0 1.110698594062E-02 0 0
TRAC 0 1 0 7.142857142857E-01 2.415165301731E-01 -9.013519614739E-01 0 8.136300028446E-03 0 0
TRAC 0 1 0 7.142857142857E-01 2.555048656761E-01 -9.535571402843E-01 0 3.76656498580E-03 0 0
TRAC 0 2 0 7.142857142857E-01 4.128633821994E-02 1.540827118953E-01 0 3.76656498580E-03 0 0
TRAC 0 2 0 7.142857142857E-01 9.304334345298E-02 3.472424850726E-01 0 8.136300028446E-03 0 0
TRAC 0 2 0 7.142857142857E-01 1.410688271144E-01 5.264760301551E-01 0 1.110698594062E-02 0 0
TRAC 0 2 0 7.142857142857E-01 1.830127018922E-01 6.830127018922E-01 0 1.215793982342E-02 0 0
TRAC 0 2 0 7.142857142857E-01 2.169951246557E-01 8.098368302099E-01 0 1.110698594062E-02 0 0
TRAC 0 2 0 7.142857142857E-01 2.415165301731E-01 9.013519614739E-01 0 8.136300028446E-03 0 0
TRAC 0 2 0 7.142857142857E-01 2.555048656761E-01 9.535571402843E-01 0 3.76656498580E-03 0 0
TRAC 0 2 0 7.142857142857E-01 1.127963736754E-01 1.127963736754E-01 0 3.76656498580E-03 0 0
TRAC 0 2 0 7.142857142857E-01 2.541991416196E-01 2.541991416196E-01 0 8.136300028446E-03 0 0
TRAC 0 2 0 7.142857142857E-01 3.854072030470E-01 3.854072030470E-01 0 1.110698594062E-02 0 0
TRAC 0 2 0 7.142857142857E-01 5.00E-01 5.00E-01 0 1.215793982342E-02 0 0
TRAC 0 2 0 7.142857142857E-01 5.928417055541E-01 5.928417055541E-01 0 1.110698594062E-02 0 0
TRAC 0 2 0 7.142857142857E-01 6.59835431380E-01 6.59835431380E-01 0 8.136300028446E-03 0 0
TRAC 0 2 0 7.142857142857E-01 6.980522746082E-01 6.980522746082E-01 0 3.76656498580E-03 0 0
TRAC 0 2 0 7.142857142857E-01 1.540827118953E-01 4.128633821994E-02 0 3.76656498580E-03 0 0
TRAC 0 2 0 7.142857142857E-01 3.472424850726E-01 9.304334345298E-02 0 8.136300028446E-03 0 0
TRAC 0 2 0 7.142857142857E-01 5.264760301551E-01 1.410688271144E-01 0 1.110698594062E-02 0 0
TRAC 0 2 0 7.142857142857E-01 6.830127018922E-01 1.830127018922E-01 0 1.215793982342E-02 0 0
TRAC 0 2 0 7.142857142857E-01 8.098368302099E-01 2.169951246557E-01 0 1.110698594062E-02 0 0
TRAC 0 2 0 7.142857142857E-01 9.013519614739E-01 2.415165301731E-01 0 8.136300028446E-03 0 0
TRAC 0 2 0 7.142857142857E-01 9.535571402843E-01 2.555048656761E-01 0 3.76656498580E-03 0 0
TRAC 0 2 0 7.142857142857E-01 1.540827118953E-01 -4.128633821994E-02 0 3.76656498580E-03 0 0
TRAC 0 2 0 7.142857142857E-01 3.472424850726E-01 -9.304334345298E-02 0 8.136300028446E-03 0 0
TRAC 0 2 0 7.142857142857E-01 5.264760301551E-01 -1.410688271144E-01 0 1.110698594062E-02 0 0
TRAC 0 2 0 7.142857142857E-01 6.830127018922E-01 -1.830127018922E-01 0 1.215793982342E-02 0 0
TRAC 0 2 0 7.142857142857E-01 8.098368302099E-01 -2.169951246557E-01 0 1.110698594062E-02 0 0
TRAC 0 2 0 7.142857142857E-01 9.013519614739E-01 -2.415165301731E-01 0 8.136300028446E-03 0 0
TRAC 0 2 0 7.142857142857E-01 9.535571402843E-01 -2.555048656761E-01 0 3.76656498580E-03 0 0
TRAC 0 2 0 7.142857142857E-01 1.127963736754E-01 -1.127963736754E-01 0 3.76656498580E-03 0 0
TRAC 0 2 0 7.142857142857E-01 2.541991416196E-01 -2.541991416196E-01 0 8.136300028446E-03 0 0
TRAC 0 2 0 7.142857142857E-01 3.854072030470E-01 -3.854072030470E-01 0 1.110698594062E-02 0 0
TRAC 0 2 0 7.142857142857E-01 5.00E-01 -5.0E-01 0 1.215793982342E-02 0 0
TRAC 0 2 0 7.142857142857E-01 5.928417055541E-01 -5.928417055541E-01 0 1.110698594062E-02 0 0
TRAC 0 2 0 7.142857142857E-01 6.59835431380E-01 -6.59835431380E-01 0 8.136300028446E-03 0 0
TRAC 0 2 0 7.142857142857E-01 6.980522746082E-01 -6.980522746082E-01 0 3.76656498580E-03 0 0
TRAC 0 2 0 7.142857142857E-01 4.128633821994E-02 -1.540827118953E-01 0 3.76656498580E-03 0 0
TRAC 0 2 0 7.142857142857E-01 9.304334345298E-02 -3.472424850726E-01 0 8.136300028446E-03 0 0
TRAC 0 2 0 7.142857142857E-01 1.410688271144E-01 -5.264760301551E-01 0 1.110698594062E-02 0 0
TRAC 0 2 0 7.142857142857E-01 1.830127018922E-01 -6.830127018922E-01 0 1.215793982342E-02 0 0
TRAC 0 2 0 7.142857142857E-01 2.169951246557E-01 -8.098368302099E-01 0 1.110698594062E-02 0 0
TRAC 0 2 0 7.142857142857E-01 2.415165301731E-01 -9.013519614739E-01 0 8.136300028446E-03 0 0
TRAC 0 2 0 7.142857142857E-01 2.555048656761E-01 -9.535571402843E-01 0 3.76656498580E-03 0 0
TRAC 0 3 0 7.142857142857E-01 4.128633821994E-02 1.540827118953E-01 0 3.76656498580E-03 0 0
TRAC 0 3 0 7.142857142857E-01 9.304334345298E-02 3.472424850726E-01 0 8.136300028446E-03 0 0
TRAC 0 3 0 7.142857142857E-01 1.410688271144E-01 5.264760301551E-01 0 1.110698594062E-02 0 0
TRAC 0 3 0 7.142857142857E-01 1.830127018922E-01 6.830127018922E-01 0 1.215793982342E-02 0 0
TRAC 0 3 0 7.142857142857E-01 2.169951246557E-01 8.098368302099E-01 0 1.110698594062E-02 0 0
TRAC 0 3 0 7.142857142857E-01 2.415165301731E-01 9.013519614739E-01 0 8.136300028446E-03 0 0
TRAC 0 3 0 7.142857142857E-01 2.555048656761E-01 9.535571402843E-01 0 3.76656498580E-03 0 0
TRAC 0 3 0 7.142857142857E-01 1.127963736754E-01 1.127963736754E-01 0 3.76656498580E-03 0 0
TRAC 0 3 0 7.142857142857E-01 2.541991416196E-01 2.541991416196E-01 0 8.136300028446E-03 0 0
TRAC 0 3 0 7.142857142857E-01 3.854072030470E-01 3.854072030470E-01 0 1.110698594062E-02 0 0
TRAC 0 3 0 7.142857142857E-01 5.00E-01 5.00E-01 0 1.215793982342E-02 0 0
TRAC 0 3 0 7.142857142857E-01 5.928417055541E-01 5.928417055541E-01 0 1.110698594062E-02 0 0
TRAC 0 3 0 7.142857142857E-01 6.59835431380E-01 6.59835431380E-01 0 8.136300028446E-03 0 0
TRAC 0 3 0 7.142857142857E-01 6.980522746082E-01 6.980522746082E-01 0 3.76656498580E-03 0 0
TRAC 0 3 0 7.142857142857E-01 1.540827118953E-01 4.128633821994E-02 0 3.76656498580E-03 0 0
TRAC 0 3 0 7.142857142857E-01 3.472424850726E-01 9.304334345298E-02 0 8.136300028446E-03 0 0
TRAC 0 3 0 7.142857142857E-01 5.264760301551E-01 1.410688271144E-01 0 1.110698594062E-02 0 0
TRAC 0 3 0 7.142857142857E-01 6.830127018922E-01 1.830127018922E-01 0 1.215793982342E-02 0 0
TRAC 0 3 0 7.142857142857E-01 8.098368302099E-01 2.169951246557E-01 0 1.110698594062E-02 0 0
TRAC 0 3 0 7.142857142857E-01 9.013519614739E-01 2.415165301731E-01 0 8.136300028446E-03 0 0
TRAC 0 3 0 7.142857142857E-01 9.535571402843E-01 2.555048656761E-01 0 3.76656498580E-03 0 0
TRAC 0 3 0 7.142857142857E-01 1.540827118953E-01 -4.128633821994E-02 0 3.76656498580E-03 0 0
TRAC 0 3 0 7.142857142857E-01 3.472424850726E-01 -9.304334345298E-02 0 8.136300028446E-03 0 0
TRAC 0 3 0 7.142857142857E-01 5.264760301551E-01 -1.410688271144E-01 0 1.110698594062E-02 0 0
TRAC 0 3 0 7.142857142857E-01 6.830127018922E-01 -1.830127018922E-01 0 1.215793982342E-02 0 0
TRAC 0 3 0 7.142857142857E-01 8.098368302099E-01 -2.169951246557E-01 0 1.110698594062E-02 0 0
TRAC 0 3 0 7.142857142857E-01 9.013519614739E-01 -2.415165301731E-01 0 8.136300028446E-03 0 0
TRAC 0 3 0 7.142857142857E-01 9.535571402843E-01 -2.555048656761E-01 0 3.76656498580E-03 0 0
TRAC 0 3 0 7.142857142857E-01 1.127963736754E-01 -1.127963736754E-01 0 3.76656498580E-03 0 0
TRAC 0 3 0 7.142857142857E-01 2.541991416196E-01 -2.541991416196E-01 0 8.136300028446E-03 0 0
TRAC 0 3 0 7.142857142857E-01 3.854072030470E-01 -3.854072030470E-01 0 1.110698594062E-02 0 0
TRAC 0 3 0 7.142857142857E-01 5.00E-01 -5.0E-01 0 1.215793982342E-02 0 0
TRAC 0 3 0 7.142857142857E-01 5.928417055541E-01 -5.928417055541E-01 0 1.110698594062E-02 0 0
TRAC 0 3 0 7.142857142857E-01 6.59835431380E-01 -6.59835431380E-01 0 8.136300028446E-03 0 0
TRAC 0 3 0 7.142857142857E-01 6.980522746082E-01 -6.980522746082E-01 0 3.76656498580E-03 0 0
TRAC 0 3 0 7.142857142857E-01 4.128633821994E-02 -1.540827118953E-01 0 3.76656498580E-03 0 0
TRAC 0 3 0 7.142857142857E-01 9.304334345298E-02 -3.472424850726E-01 0 8.136300028446E-03 0 0
TRAC 0 3 0 7.142857142857E-01 1.410688271144E-01 -5.264760301551E-01 0 1.110698594062E-02 0 0
TRAC 0 3 0 7.142857142857E-01 1.830127018922E-01 -6.830127018922E-01 0 1.215793982342E-02 0 0
TRAC 0 3 0 7.142857142857E-01 2.169951246557E-01 -8.098368302099E-01 0 1.110698594062E-02 0 0
TRAC 0 3 0 7.142857142857E-01 2.415165301731E-01 -9.013519614739E-01 0 8.136300028446E-03 0 0
TRAC 0 3 0 7.142857142857E-01 2.555048656761E-01 -9.535571402843E-01 0 3.76656498580E-03 0 0
BLNK Operands for field 3.
TRAC 0 1 0 1 4.128633821994E-02 1.540827118953E-01 0 3.76656498580E-03 0 0
TRAC 0 1 0 1 9.304334345298E-02 3.472424850726E-01 0 8.136300028446E-03 0 0
TRAC 0 1 0 1 1.410688271144E-01 5.264760301551E-01 0 1.110698594062E-02 0 0
TRAC 0 1 0 1 1.830127018922E-01 6.830127018922E-01 0 1.215793982342E-02 0 0
TRAC 0 1 0 1 2.169951246557E-01 8.098368302099E-01 0 1.110698594062E-02 0 0
TRAC 0 1 0 1 2.415165301731E-01 9.013519614739E-01 0 8.136300028446E-03 0 0
TRAC 0 1 0 1 2.555048656761E-01 9.535571402843E-01 0 3.76656498580E-03 0 0
TRAC 0 1 0 1 1.127963736754E-01 1.127963736754E-01 0 3.76656498580E-03 0 0
TRAC 0 1 0 1 2.541991416196E-01 2.541991416196E-01 0 8.136300028446E-03 0 0
TRAC 0 1 0 1 3.854072030470E-01 3.854072030470E-01 0 1.110698594062E-02 0 0
TRAC 0 1 0 1 5.00E-01 5.00E-01 0 1.215793982342E-02 0 0
TRAC 0 1 0 1 5.928417055541E-01 5.928417055541E-01 0 1.110698594062E-02 0 0
TRAC 0 1 0 1 6.59835431380E-01 6.59835431380E-01 0 8.136300028446E-03 0 0
TRAC 0 1 0 1 6.980522746082E-01 6.980522746082E-01 0 3.76656498580E-03 0 0
TRAC 0 1 0 1 1.540827118953E-01 4.128633821994E-02 0 3.76656498580E-03 0 0
TRAC 0 1 0 1 3.472424850726E-01 9.304334345298E-02 0 8.136300028446E-03 0 0
TRAC 0 1 0 1 5.264760301551E-01 1.410688271144E-01 0 1.110698594062E-02 0 0
TRAC 0 1 0 1 6.830127018922E-01 1.830127018922E-01 0 1.215793982342E-02 0 0
TRAC 0 1 0 1 8.098368302099E-01 2.169951246557E-01 0 1.110698594062E-02 0 0
TRAC 0 1 0 1 9.013519614739E-01 2.415165301731E-01 0 8.136300028446E-03 0 0
TRAC 0 1 0 1 9.535571402843E-01 2.555048656761E-01 0 3.76656498580E-03 0 0
TRAC 0 1 0 1 1.540827118953E-01 -4.128633821994E-02 0 3.76656498580E-03 0 0
TRAC 0 1 0 1 3.472424850726E-01 -9.304334345298E-02 0 8.136300028446E-03 0 0
TRAC 0 1 0 1 5.264760301551E-01 -1.410688271144E-01 0 1.110698594062E-02 0 0
TRAC 0 1 0 1 6.830127018922E-01 -1.830127018922E-01 0 1.215793982342E-02 0 0
TRAC 0 1 0 1 8.098368302099E-01 -2.169951246557E-01 0 1.110698594062E-02 0 0
TRAC 0 1 0 1 9.013519614739E-01 -2.415165301731E-01 0 8.136300028446E-03 0 0
TRAC 0 1 0 1 9.535571402843E-01 -2.555048656761E-01 0 3.76656498580E-03 0 0
TRAC 0 1 0 1 1.127963736754E-01 -1.127963736754E-01 0 3.76656498580E-03 0 0
TRAC 0 1 0 1 2.541991416196E-01 -2.541991416196E-01 0 8.136300028446E-03 0 0
TRAC 0 1 0 1 3.854072030470E-01 -3.854072030470E-01 0 1.110698594062E-02 0 0
TRAC 0 1 0 1 5.00E-01 -5.0E-01 0 1.215793982342E-02 0 0
TRAC 0 1 0 1 5.928417055541E-01 -5.928417055541E-01 0 1.110698594062E-02 0 0
TRAC 0 1 0 1 6.59835431380E-01 -6.59835431380E-01 0 8.136300028446E-03 0 0
TRAC 0 1 0 1 6.980522746082E-01 -6.980522746082E-01 0 3.76656498580E-03 0 0
TRAC 0 1 0 1 4.128633821994E-02 -1.540827118953E-01 0 3.76656498580E-03 0 0
TRAC 0 1 0 1 9.304334345298E-02 -3.472424850726E-01 0 8.136300028446E-03 0 0
TRAC 0 1 0 1 1.410688271144E-01 -5.264760301551E-01 0 1.110698594062E-02 0 0
TRAC 0 1 0 1 1.830127018922E-01 -6.830127018922E-01 0 1.215793982342E-02 0 0
TRAC 0 1 0 1 2.169951246557E-01 -8.098368302099E-01 0 1.110698594062E-02 0 0
TRAC 0 1 0 1 2.415165301731E-01 -9.013519614739E-01 0 8.136300028446E-03 0 0
TRAC 0 1 0 1 2.555048656761E-01 -9.535571402843E-01 0 3.76656498580E-03 0 0
TRAC 0 2 0 1 4.128633821994E-02 1.540827118953E-01 0 3.76656498580E-03 0 0
TRAC 0 2 0 1 9.304334345298E-02 3.472424850726E-01 0 8.136300028446E-03 0 0
TRAC 0 2 0 1 1.410688271144E-01 5.264760301551E-01 0 1.110698594062E-02 0 0
TRAC 0 2 0 1 1.830127018922E-01 6.830127018922E-01 0 1.215793982342E-02 0 0
TRAC 0 2 0 1 2.169951246557E-01 8.098368302099E-01 0 1.110698594062E-02 0 0
TRAC 0 2 0 1 2.415165301731E-01 9.013519614739E-01 0 8.136300028446E-03 0 0
TRAC 0 2 0 1 2.555048656761E-01 9.535571402843E-01 0 3.76656498580E-03 0 0
TRAC 0 2 0 1 1.127963736754E-01 1.127963736754E-01 0 3.76656498580E-03 0 0
TRAC 0 2 0 1 2.541991416196E-01 2.541991416196E-01 0 8.136300028446E-03 0 0
TRAC 0 2 0 1 3.854072030470E-01 3.854072030470E-01 0 1.110698594062E-02 0 0
TRAC 0 2 0 1 5.00E-01 5.00E-01 0 1.215793982342E-02 0 0
TRAC 0 2 0 1 5.928417055541E-01 5.928417055541E-01 0 1.110698594062E-02 0 0
TRAC 0 2 0 1 6.59835431380E-01 6.59835431380E-01 0 8.136300028446E-03 0 0
TRAC 0 2 0 1 6.980522746082E-01 6.980522746082E-01 0 3.76656498580E-03 0 0
TRAC 0 2 0 1 1.540827118953E-01 4.128633821994E-02 0 3.76656498580E-03 0 0
TRAC 0 2 0 1 3.472424850726E-01 9.304334345298E-02 0 8.136300028446E-03 0 0
TRAC 0 2 0 1 5.264760301551E-01 1.410688271144E-01 0 1.110698594062E-02 0 0
TRAC 0 2 0 1 6.830127018922E-01 1.830127018922E-01 0 1.215793982342E-02 0 0
TRAC 0 2 0 1 8.098368302099E-01 2.169951246557E-01 0 1.110698594062E-02 0 0
TRAC 0 2 0 1 9.013519614739E-01 2.415165301731E-01 0 8.136300028446E-03 0 0
TRAC 0 2 0 1 9.535571402843E-01 2.555048656761E-01 0 3.76656498580E-03 0 0
TRAC 0 2 0 1 1.540827118953E-01 -4.128633821994E-02 0 3.76656498580E-03 0 0
TRAC 0 2 0 1 3.472424850726E-01 -9.304334345298E-02 0 8.136300028446E-03 0 0
TRAC 0 2 0 1 5.264760301551E-01 -1.410688271144E-01 0 1.110698594062E-02 0 0
TRAC 0 2 0 1 6.830127018922E-01 -1.830127018922E-01 0 1.215793982342E-02 0 0
TRAC 0 2 0 1 8.098368302099E-01 -2.169951246557E-01 0 1.110698594062E-02 0 0
TRAC 0 2 0 1 9.013519614739E-01 -2.415165301731E-01 0 8.136300028446E-03 0 0
TRAC 0 2 0 1 9.535571402843E-01 -2.555048656761E-01 0 3.76656498580E-03 0 0
TRAC 0 2 0 1 1.127963736754E-01 -1.127963736754E-01 0 3.76656498580E-03 0 0
TRAC 0 2 0 1 2.541991416196E-01 -2.541991416196E-01 0 8.136300028446E-03 0 0
TRAC 0 2 0 1 3.854072030470E-01 -3.854072030470E-01 0 1.110698594062E-02 0 0
TRAC 0 2 0 1 5.00E-01 -5.0E-01 0 1.215793982342E-02 0 0
TRAC 0 2 0 1 5.928417055541E-01 -5.928417055541E-01 0 1.110698594062E-02 0 0
TRAC 0 2 0 1 6.59835431380E-01 -6.59835431380E-01 0 8.136300028446E-03 0 0
TRAC 0 2 0 1 6.980522746082E-01 -6.980522746082E-01 0 3.76656498580E-03 0 0
TRAC 0 2 0 1 4.128633821994E-02 -1.540827118953E-01 0 3.76656498580E-03 0 0
TRAC 0 2 0 1 9.304334345298E-02 -3.472424850726E-01 0 8.136300028446E-03 0 0
TRAC 0 2 0 1 1.410688271144E-01 -5.264760301551E-01 0 1.110698594062E-02 0 0
TRAC 0 2 0 1 1.830127018922E-01 -6.830127018922E-01 0 1.215793982342E-02 0 0
TRAC 0 2 0 1 2.169951246557E-01 -8.098368302099E-01 0 1.110698594062E-02 0 0
TRAC 0 2 0 1 2.415165301731E-01 -9.013519614739E-01 0 8.136300028446E-03 0 0
TRAC 0 2 0 1 2.555048656761E-01 -9.535571402843E-01 0 3.76656498580E-03 0 0
TRAC 0 3 0 1 4.128633821994E-02 1.540827118953E-01 0 3.76656498580E-03 0 0
TRAC 0 3 0 1 9.304334345298E-02 3.472424850726E-01 0 8.136300028446E-03 0 0
TRAC 0 3 0 1 1.410688271144E-01 5.264760301551E-01 0 1.110698594062E-02 0 0
TRAC 0 3 0 1 1.830127018922E-01 6.830127018922E-01 0 1.215793982342E-02 0 0
TRAC 0 3 0 1 2.169951246557E-01 8.098368302099E-01 0 1.110698594062E-02 0 0
TRAC 0 3 0 1 2.415165301731E-01 9.013519614739E-01 0 8.136300028446E-03 0 0
TRAC 0 3 0 1 2.555048656761E-01 9.535571402843E-01 0 3.76656498580E-03 0 0
TRAC 0 3 0 1 1.127963736754E-01 1.127963736754E-01 0 3.76656498580E-03 0 0
TRAC 0 3 0 1 2.541991416196E-01 2.541991416196E-01 0 8.136300028446E-03 0 0
TRAC 0 3 0 1 3.854072030470E-01 3.854072030470E-01 0 1.110698594062E-02 0 0
TRAC 0 3 0 1 5.00E-01 5.00E-01 0 1.215793982342E-02 0 0
TRAC 0 3 0 1 5.928417055541E-01 5.928417055541E-01 0 1.110698594062E-02 0 0
TRAC 0 3 0 1 6.59835431380E-01 6.59835431380E-01 0 8.136300028446E-03 0 0
TRAC 0 3 0 1 6.980522746082E-01 6.980522746082E-01 0 3.76656498580E-03 0 0
TRAC 0 3 0 1 1.540827118953E-01 4.128633821994E-02 0 3.76656498580E-03 0 0
TRAC 0 3 0 1 3.472424850726E-01 9.304334345298E-02 0 8.136300028446E-03 0 0
TRAC 0 3 0 1 5.264760301551E-01 1.410688271144E-01 0 1.110698594062E-02 0 0
TRAC 0 3 0 1 6.830127018922E-01 1.830127018922E-01 0 1.215793982342E-02 0 0
TRAC 0 3 0 1 8.098368302099E-01 2.169951246557E-01 0 1.110698594062E-02 0 0
TRAC 0 3 0 1 9.013519614739E-01 2.415165301731E-01 0 8.136300028446E-03 0 0
TRAC 0 3 0 1 9.535571402843E-01 2.555048656761E-01 0 3.76656498580E-03 0 0
TRAC 0 3 0 1 1.540827118953E-01 -4.128633821994E-02 0 3.76656498580E-03 0 0
TRAC 0 3 0 1 3.472424850726E-01 -9.304334345298E-02 0 8.136300028446E-03 0 0
TRAC 0 3 0 1 5.264760301551E-01 -1.410688271144E-01 0 1.110698594062E-02 0 0
TRAC 0 3 0 1 6.830127018922E-01 -1.830127018922E-01 0 1.215793982342E-02 0 0
TRAC 0 3 0 1 8.098368302099E-01 -2.169951246557E-01 0 1.110698594062E-02 0 0
TRAC 0 3 0 1 9.013519614739E-01 -2.415165301731E-01 0 8.136300028446E-03 0 0
TRAC 0 3 0 1 9.535571402843E-01 -2.555048656761E-01 0 3.76656498580E-03 0 0
TRAC 0 3 0 1 1.127963736754E-01 -1.127963736754E-01 0 3.76656498580E-03 0 0
TRAC 0 3 0 1 2.541991416196E-01 -2.541991416196E-01 0 8.136300028446E-03 0 0
TRAC 0 3 0 1 3.854072030470E-01 -3.854072030470E-01 0 1.110698594062E-02 0 0
TRAC 0 3 0 1 5.00E-01 -5.0E-01 0 1.215793982342E-02 0 0
TRAC 0 3 0 1 5.928417055541E-01 -5.928417055541E-01 0 1.110698594062E-02 0 0
TRAC 0 3 0 1 6.59835431380E-01 -6.59835431380E-01 0 8.136300028446E-03 0 0
TRAC 0 3 0 1 6.980522746082E-01 -6.980522746082E-01 0 3.76656498580E-03 0 0
TRAC 0 3 0 1 4.128633821994E-02 -1.540827118953E-01 0 3.76656498580E-03 0 0
TRAC 0 3 0 1 9.304334345298E-02 -3.472424850726E-01 0 8.136300028446E-03 0 0
TRAC 0 3 0 1 1.410688271144E-01 -5.264760301551E-01 0 1.110698594062E-02 0 0
TRAC 0 3 0 1 1.830127018922E-01 -6.830127018922E-01 0 1.215793982342E-02 0 0
TRAC 0 3 0 1 2.169951246557E-01 -8.098368302099E-01 0 1.110698594062E-02 0 0
TRAC 0 3 0 1 2.415165301731E-01 -9.013519614739E-01 0 8.136300028446E-03 0 0
TRAC 0 3 0 1 2.555048656761E-01 -9.535571402843E-01 0 3.76656498580E-03 0 0
TOL TOFF   0   0              0              0   0 0 0 0
MNUM 1 1
MOFF   0   1 "" 0 0 0 1 1 0 0.0 "" 0
