VERS 160720 215 100027
MODE SEQ
NAME 
PFIL 0 0 0
LANG 0
UNIT MM X W X CM MR CPMM
FNUM 1.50E+00 0
ENVD 2.00E+01 1 0
GFAC 0 0
GCAT SCHOTT OHARA-CALDWELL2 
RAIM 0 2 1 1 0 1 0 0 0 1
PUSH -1.066712881854E+01 0 0 0 0 0
SDMA 0 1 0
OMMA 1 1
FTYP 0 0 3 3 0 0 0
ROPD 2
PICB 1
XFLN 0 0 0 0 0 0 0 0 0 0 0 0
YFLN 0 1.10E+01 2.20E+01 3.00E+01 4.00E+01 0 0 0 0 0 0 0
FWGN 1 1 1 1 1 1 1 1 1 1 1 1
VDXN 0 0 0 0 0 0 0 0 0 0 0 0
VDYN 0 0 0 0 0 0 0 0 0 0 0 0
VCXN 0 0 0 0 0 0 0 0 0 0 0 0
VCYN 0 0 0 0 0 0 0 0 0 0 0 0
VANN 0 0 0 0 0 0 0 0 0 0 0 0
WAVM 1 4.8613270E-01 1
WAVM 2 5.8756180E-01 1
WAVM 3 6.5627250E-01 1
WAVM 4 5.50E-01 1
WAVM 5 5.50E-01 1
WAVM 6 5.50E-01 1
WAVM 7 5.50E-01 1
WAVM 8 5.50E-01 1
WAVM 9 5.50E-01 1
WAVM 10 5.50E-01 1
WAVM 11 5.50E-01 1
WAVM 12 5.50E-01 1
WAVM 13 5.50E-01 1
WAVM 14 5.50E-01 1
WAVM 15 5.50E-01 1
WAVM 16 5.50E-01 1
WAVM 17 5.50E-01 1
WAVM 18 5.50E-01 1
WAVM 19 5.50E-01 1
WAVM 20 5.50E-01 1
WAVM 21 5.50E-01 1
WAVM 22 5.50E-01 1
WAVM 23 5.50E-01 1
WAVM 24 5.50E-01 1
PWAV 2
POLS 1 0 1 0 0 1 0
GLRS 1 0
GSTD 0 100.000 100.000 100.000 100.000 100.000 100.000 0 1 1 0 0 1 1 1 1 1 1
NSCD 100 500 0 1.00E-03 5 1.00E-06 0 0 0 0 0 0 1000000 0 2
COFN QF "COATING.DAT" "SCATTER_PROFILE.DAT" "ABG_DATA.DAT" "PROFILE.GRD"
COFN COATING.DAT SCATTER_PROFILE.DAT ABG_DATA.DAT PROFILE.GRD
SURF 0
  TYPE STANDARD
  FIMP 

  CURV 0.0 0 0 0 0 ""
  HIDE 0 0 0 0 0 0 0 0 0 0
  MIRR 2 0
  SLAB 1
  DISZ INFINITY
  DIAM 0 0 0 0 1 ""
  MEMA 0 0 0 0 1 ""
  POPS 0 0 0 0 0 0 0 0 1 1 1 1 0 0 0 0
SURF 1
  TYPE STANDARD
  FIMP 

  CURV 1.130397506371074237E-02 0 0 0 0 ""
  HIDE 0 0 0 0 0 0 0 0 0 0
  MIRR 2 0
  SLAB 2
  DISZ 4.793413180412E+00
  GLAS LAK16A 3 0 1.516329924761E+00 6.414202197113E+01 -2.40E-03 0 0 0 0 0 
  DIAM 2.905542121098E+01 1 0 0 1 ""
  MEMA 2.905542121098E+01 0 0 0 1 ""
  POPS 0 0 0 0 0 0 0 0 1 1 1 1 0 0 0 0
  FLAP 0 2.905542121098E+01 0
SURF 2
  TYPE STANDARD
  FIMP 

  CURV 3.066501131582617754E-03 0 0 0 0 ""
  HIDE 0 0 0 0 0 0 0 0 0 0
  MIRR 2 0
  SLAB 2
  DISZ 3.144082350826E-01
  DIAM 2.905542121098E+01 1 0 0 1 ""
  MEMA 2.905542121098E+01 0 0 0 1 ""
  POPS 0 0 0 0 0 0 0 0 1 1 1 1 0 0 0 0
  FLAP 0 2.905542121098E+01 0
SURF 3
  TYPE STANDARD
  FIMP 

  CURV 2.109642435180022688E-02 0 0 0 0 ""
  HIDE 0 0 0 0 0 0 0 0 0 0
  MIRR 2 0
  SLAB 2
  DISZ 4.751702787084E+00
  GLAS FK51 3 0 1.516329924761E+00 6.414202197113E+01 -2.40E-03 0 0 0 0 0 
  DIAM 2.510733849866E+01 1 0 0 1 ""
  MEMA 2.510733849866E+01 0 0 0 1 ""
  POPS 0 0 0 0 0 0 0 0 1 1 1 1 0 0 0 0
  FLAP 0 2.510733849866E+01 0
SURF 4
  TYPE STANDARD
  FIMP 

  CURV 1.220165300020633996E-02 0 0 0 0 ""
  HIDE 0 0 0 0 0 0 0 0 0 0
  MIRR 2 0
  SLAB 2
  DISZ 6.934452833961E-01
  DIAM 2.498396091390E+01 1 0 0 1 ""
  MEMA 2.510733849866E+01 0 0 0 1 ""
  POPS 0 0 0 0 0 0 0 0 1 1 1 1 0 0 0 0
  FLAP 0 2.498396091390E+01 0
SURF 5
  TYPE STANDARD
  FIMP 

  CURV 3.417212417416817805E-02 0 0 0 0 ""
  HIDE 0 0 0 0 0 0 0 0 0 0
  MIRR 2 0
  SLAB 2
  DISZ 1.055927048311E+01
  GLAS N-LAK34 3 0 1.516329924761E+00 6.414202197113E+01 -2.40E-03 0 0 0 0 0 
  DIAM 2.152938854062E+01 1 0 0 1 ""
  MEMA 2.152938854062E+01 0 0 0 1 ""
  POPS 0 0 0 0 0 0 0 0 1 1 1 1 0 0 0 0
  FLAP 0 2.152938854062E+01 0
SURF 6
  TYPE STANDARD
  FIMP 

  CURV 3.046406904069025572E-03 0 0 0 0 ""
  HIDE 0 0 0 0 0 0 0 0 0 0
  MIRR 2 0
  SLAB 2
  DISZ 2.295274531158E+00
  GLAS TIFN5 3 0 1.487489934771E+00 7.023625207231E+01 2.20E-03 0 0 0 0 0 
  DIAM 2.146769974824E+01 1 0 0 1 ""
  MEMA 2.152938854062E+01 0 0 0 1 ""
  POPS 0 0 0 0 0 0 0 0 1 1 1 1 0 0 0 0
  FLAP 0 2.146769974824E+01 0
SURF 7
  TYPE STANDARD
  FIMP 

  CURV 5.642827475193602088E-02 0 0 0 0 ""
  HIDE 0 0 0 0 0 0 0 0 0 0
  MIRR 2 0
  SLAB 2
  DISZ 8.623303227530E+00
  DIAM 1.468193258644E+01 1 0 0 1 ""
  MEMA 2.152938854062E+01 0 0 0 1 ""
  POPS 0 0 0 0 0 0 0 0 1 1 1 1 0 0 0 0
  FLAP 0 1.468193258644E+01 0
SURF 8
  STOP
  TYPE STANDARD
  FIMP 

  CURV 0.0 0 0 0 0 ""
  HIDE 0 0 0 0 0 0 0 0 0 0
  MIRR 2 0
  SLAB 2
  DISZ 5.333283239138E+00
  DIAM 9.516429835880E+00 0 0 0 1 ""
  MEMA 9.516429835880E+00 0 0 0 1 ""
  POPS 0 0 0 0 0 0 0 0 1 1 1 1 0 0 0 0
SURF 9
  TYPE STANDARD
  FIMP 

  CURV -4.268835701781167197E-02 0 0 0 0 ""
  HIDE 0 0 0 0 0 0 0 0 0 0
  MIRR 2 0
  SLAB 2
  DISZ 3.012719288842E+00
  GLAS FN11 3 0 1.487489934771E+00 7.023625207231E+01 2.20E-03 0 0 0 0 0 
  DIAM 1.449686620930E+01 1 0 0 1 ""
  MEMA 1.671766273498E+01 0 0 0 1 ""
  POPS 0 0 0 0 0 0 0 0 1 1 1 1 0 0 0 0
  FLAP 0 1.449686620930E+01 0
SURF 10
  TYPE STANDARD
  FIMP 

  CURV 8.358946999737885269E-03 0 0 0 0 ""
  HIDE 0 0 0 0 0 0 0 0 0 0
  MIRR 2 0
  SLAB 2
  DISZ 1.215312278287E+01
  GLAS N-LAK33 3 0 1.516329924761E+00 6.414202197113E+01 -2.40E-03 0 0 0 0 0 
  DIAM 1.671766273498E+01 1 0 0 1 ""
  MEMA 1.671766273498E+01 0 0 0 1 ""
  POPS 0 0 0 0 0 0 0 0 1 1 1 1 0 0 0 0
  FLAP 0 1.671766273498E+01 0
SURF 11
  TYPE STANDARD
  FIMP 

  CURV -3.117468567946801369E-02 0 0 0 0 ""
  HIDE 0 0 0 0 0 0 0 0 0 0
  MIRR 2 0
  SLAB 2
  DISZ 3.61719603710E-01
  DIAM 1.665597394260E+01 1 0 0 1 ""
  MEMA 1.671766273498E+01 0 0 0 1 ""
  POPS 0 0 0 0 0 0 0 0 1 1 1 1 0 0 0 0
  FLAP 0 1.665597394260E+01 0
SURF 12
  TYPE STANDARD
  FIMP 

  CURV 1.614061440632587677E-02 0 0 0 0 ""
  HIDE 0 0 0 0 0 0 0 0 0 0
  MIRR 2 0
  SLAB 2
  DISZ 5.483264300678E+00
  GLAS S-LAH58 3 0 1.516329924761E+00 6.414202197113E+01 -2.40E-03 0 0 0 0 0 
  DIAM 1.758130582830E+01 1 0 0 1 ""
  MEMA 1.758130582830E+01 0 0 0 1 ""
  POPS 0 0 0 0 0 0 0 0 1 1 1 1 0 0 0 0
  FLAP 0 1.758130582830E+01 0
SURF 13
  TYPE STANDARD
  FIMP 

  CURV -1.575688782756635119E-03 0 0 0 0 ""
  HIDE 0 0 0 0 0 0 0 0 0 0
  MIRR 2 0
  SLAB 2
  DISZ 4.094495848331E-01
  DIAM 1.733455065878E+01 1 0 0 1 ""
  MEMA 1.758130582830E+01 0 0 0 1 ""
  POPS 0 0 0 0 0 0 0 0 1 1 1 1 0 0 0 0
  FLAP 0 1.733455065878E+01 0
SURF 14
  TYPE STANDARD
  FIMP 

  CURV 1.575493537587269177E-02 0 0 0 0 ""
  HIDE 0 0 0 0 0 0 0 0 0 0
  MIRR 2 0
  SLAB 2
  DISZ 1.294169948917E+00
  GLAS SFL4 3 0 1.516329924761E+00 6.414202197113E+01 -2.40E-03 0 0 0 0 0 
  DIAM 1.782806099782E+01 1 0 0 1 ""
  MEMA 1.782806099782E+01 0 0 0 1 ""
  POPS 0 0 0 0 0 0 0 0 1 1 1 1 0 0 0 0
  FLAP 0 1.782806099782E+01 0
SURF 15
  TYPE STANDARD
  FIMP 

  CURV 2.830130429122830124E-02 0 0 0 0 ""
  HIDE 0 0 0 0 0 0 0 0 0 0
  MIRR 2 0
  SLAB 2
  DISZ 4.449847938346E+00
  GLAS SK14 3 0 1.487489934771E+00 7.023625207231E+01 2.20E-03 0 0 0 0 0 
  DIAM 1.77046834136E+01 1 0 0 1 ""
  MEMA 1.782806099782E+01 0 0 0 1 ""
  POPS 0 0 0 0 0 0 0 0 1 1 1 1 0 0 0 0
  FLAP 0 1.77046834136E+01 0
SURF 16
  TYPE STANDARD
  FIMP 

  CURV 9.454314284899517293E-03 0 0 0 0 ""
  HIDE 0 0 0 0 0 0 0 0 0 0
  MIRR 2 0
  SLAB 2
  DISZ 2.421740485113E+01
  DIAM 1.776637220544E+01 1 0 0 1 ""
  MEMA 1.782806099782E+01 0 0 0 1 ""
  POPS 0 0 0 0 0 0 0 0 1 1 1 1 0 0 0 0
  FLAP 0 1.776637220544E+01 0
SURF 17
  TYPE STANDARD
  FIMP 

  CURV 0.0 0 0 0 0 ""
  HIDE 0 0 0 0 0 0 0 0 0 0
  MIRR 2 0
  SLAB 4
  DISZ -5.094221634075E+00
  MAZH 0 7.00E-01
  DIAM 2.323552802666E+01 0 0 0 1 ""
  MEMA 2.323552802666E+01 0 0 0 1 ""
  POPS 0 0 0 0 0 0 0 0 1 1 1 1 0 0 0 0
SURF 18
  TYPE STANDARD
  FIMP 

  CURV 0.0 0 0 0 0 ""
  HIDE 0 0 0 0 0 0 0 0 0 0
  MIRR 2 0
  SLAB 3
  DISZ 0
  DIAM 2.036077916446E+01 0 0 0 1 ""
  MEMA 2.036077916446E+01 0 0 0 1 ""
  POPS 0 0 0 0 0 0 0 0 1 1 1 1 0 0 0 0
DMFS 0 0 0 0 0 0 0 0 0 0
BLNK Sequential merit function: RMS spot radius centroid GQ 8 rings 10 arms
BLNK No air or glass constraints.
BLNK Operands for field 1.
TRAC 0 1 0 0 1.409080258581E-01 0 0 1.766771255242E-02 0 0
TRAC 0 1 0 0 3.188522562147E-01 0 0 3.881281245220E-02 0 0
TRAC 0 1 0 0 4.870665201460E-01 0 0 5.475213855953E-02 0 0
TRAC 0 1 0 0 6.389700139695E-01 0 0 6.330026163542E-02 0 0
TRAC 0 1 0 0 7.692316434260E-01 0 0 6.330026163542E-02 0 0
TRAC 0 1 0 0 8.733648750426E-01 0 0 5.475213855953E-02 0 0
TRAC 0 1 0 0 9.478044306221E-01 0 0 3.881281245220E-02 0 0
TRAC 0 1 0 0 9.900226907747E-01 0 0 1.766771255242E-02 0 0
TRAC 0 2 0 0 1.409080258581E-01 0 0 1.766771255242E-02 0 0
TRAC 0 2 0 0 3.188522562147E-01 0 0 3.881281245220E-02 0 0
TRAC 0 2 0 0 4.870665201460E-01 0 0 5.475213855953E-02 0 0
TRAC 0 2 0 0 6.389700139695E-01 0 0 6.330026163542E-02 0 0
TRAC 0 2 0 0 7.692316434260E-01 0 0 6.330026163542E-02 0 0
TRAC 0 2 0 0 8.733648750426E-01 0 0 5.475213855953E-02 0 0
TRAC 0 2 0 0 9.478044306221E-01 0 0 3.881281245220E-02 0 0
TRAC 0 2 0 0 9.900226907747E-01 0 0 1.766771255242E-02 0 0
TRAC 0 3 0 0 1.409080258581E-01 0 0 1.766771255242E-02 0 0
TRAC 0 3 0 0 3.188522562147E-01 0 0 3.881281245220E-02 0 0
TRAC 0 3 0 0 4.870665201460E-01 0 0 5.475213855953E-02 0 0
TRAC 0 3 0 0 6.389700139695E-01 0 0 6.330026163542E-02 0 0
TRAC 0 3 0 0 7.692316434260E-01 0 0 6.330026163542E-02 0 0
TRAC 0 3 0 0 8.733648750426E-01 0 0 5.475213855953E-02 0 0
TRAC 0 3 0 0 9.478044306221E-01 0 0 3.881281245220E-02 0 0
TRAC 0 3 0 0 9.900226907747E-01 0 0 1.766771255242E-02 0 0
BLNK Operands for field 2.
TRAC 0 1 0 5.00E-01 4.354297463398E-02 1.340114961960E-01 0 3.533542510483E-03 0 0
TRAC 0 1 0 5.00E-01 9.853076586513E-02 3.032465160084E-01 0 7.762562490450E-03 0 0
TRAC 0 1 0 5.00E-01 1.505118321145E-01 4.632277878489E-01 0 1.095042771191E-02 0 0
TRAC 0 1 0 5.00E-01 1.974525932126E-01 6.076965955029E-01 0 1.266005232780E-02 0 0
TRAC 0 1 0 5.00E-01 2.377056504296E-01 7.315827670270E-01 0 1.266005232780E-02 0 0
TRAC 0 1 0 5.00E-01 2.698845886783E-01 8.306193555126E-01 0 1.095042771191E-02 0 0
TRAC 0 1 0 5.00E-01 2.928876764061E-01 9.014155799165E-01 0 7.762562490450E-03 0 0
TRAC 0 1 0 5.00E-01 3.059338362662E-01 9.415675313413E-01 0 3.533542510483E-03 0 0
TRAC 0 1 0 5.00E-01 1.139969875630E-01 8.282365952950E-02 0 3.533542510483E-03 0 0
TRAC 0 1 0 5.00E-01 2.579568939725E-01 1.874166538632E-01 0 7.762562490450E-03 0 0
TRAC 0 1 0 5.00E-01 3.940450921848E-01 2.862905174240E-01 0 1.095042771191E-02 0 0
TRAC 0 1 0 5.00E-01 5.169376001973E-01 3.755771508684E-01 0 1.266005232780E-02 0 0
TRAC 0 1 0 5.00E-01 6.223214721426E-01 4.521430156025E-01 0 1.266005232780E-02 0 0
TRAC 0 1 0 5.00E-01 7.065670261996E-01 5.133509934230E-01 0 1.095042771191E-02 0 0
TRAC 0 1 0 5.00E-01 7.667898917171E-01 5.571054663771E-01 0 7.762562490450E-03 0 0
TRAC 0 1 0 5.00E-01 8.009451816535E-01 5.819207370723E-01 0 3.533542510483E-03 0 0
TRAC 0 1 0 5.00E-01 1.409080258581E-01 0 0 3.533542510483E-03 0 0
TRAC 0 1 0 5.00E-01 3.188522562147E-01 0 0 7.762562490450E-03 0 0
TRAC 0 1 0 5.00E-01 4.870665201460E-01 0 0 1.095042771191E-02 0 0
TRAC 0 1 0 5.00E-01 6.389700139695E-01 0 0 1.266005232780E-02 0 0
TRAC 0 1 0 5.00E-01 7.692316434260E-01 0 0 1.266005232780E-02 0 0
TRAC 0 1 0 5.00E-01 8.733648750426E-01 0 0 1.095042771191E-02 0 0
TRAC 0 1 0 5.00E-01 9.478044306221E-01 0 0 7.762562490450E-03 0 0
TRAC 0 1 0 5.00E-01 9.900226907747E-01 0 0 3.533542510483E-03 0 0
TRAC 0 1 0 5.00E-01 1.139969875630E-01 -8.282365952950E-02 0 3.533542510483E-03 0 0
TRAC 0 1 0 5.00E-01 2.579568939725E-01 -1.874166538632E-01 0 7.762562490450E-03 0 0
TRAC 0 1 0 5.00E-01 3.940450921848E-01 -2.862905174240E-01 0 1.095042771191E-02 0 0
TRAC 0 1 0 5.00E-01 5.169376001973E-01 -3.755771508684E-01 0 1.266005232780E-02 0 0
TRAC 0 1 0 5.00E-01 6.223214721426E-01 -4.521430156025E-01 0 1.266005232780E-02 0 0
TRAC 0 1 0 5.00E-01 7.065670261996E-01 -5.133509934230E-01 0 1.095042771191E-02 0 0
TRAC 0 1 0 5.00E-01 7.667898917171E-01 -5.571054663771E-01 0 7.762562490450E-03 0 0
TRAC 0 1 0 5.00E-01 8.009451816535E-01 -5.819207370723E-01 0 3.533542510483E-03 0 0
TRAC 0 1 0 5.00E-01 4.354297463398E-02 -1.340114961960E-01 0 3.533542510483E-03 0 0
TRAC 0 1 0 5.00E-01 9.853076586513E-02 -3.032465160084E-01 0 7.762562490450E-03 0 0
TRAC 0 1 0 5.00E-01 1.505118321145E-01 -4.632277878489E-01 0 1.095042771191E-02 0 0
TRAC 0 1 0 5.00E-01 1.974525932126E-01 -6.076965955029E-01 0 1.266005232780E-02 0 0
TRAC 0 1 0 5.00E-01 2.377056504296E-01 -7.315827670270E-01 0 1.266005232780E-02 0 0
TRAC 0 1 0 5.00E-01 2.698845886783E-01 -8.306193555126E-01 0 1.095042771191E-02 0 0
TRAC 0 1 0 5.00E-01 2.928876764061E-01 -9.014155799165E-01 0 7.762562490450E-03 0 0
TRAC 0 1 0 5.00E-01 3.059338362662E-01 -9.415675313413E-01 0 3.533542510483E-03 0 0
TRAC 0 2 0 5.00E-01 4.354297463398E-02 1.340114961960E-01 0 3.533542510483E-03 0 0
TRAC 0 2 0 5.00E-01 9.853076586513E-02 3.032465160084E-01 0 7.762562490450E-03 0 0
TRAC 0 2 0 5.00E-01 1.505118321145E-01 4.632277878489E-01 0 1.095042771191E-02 0 0
TRAC 0 2 0 5.00E-01 1.974525932126E-01 6.076965955029E-01 0 1.266005232780E-02 0 0
TRAC 0 2 0 5.00E-01 2.377056504296E-01 7.315827670270E-01 0 1.266005232780E-02 0 0
TRAC 0 2 0 5.00E-01 2.698845886783E-01 8.306193555126E-01 0 1.095042771191E-02 0 0
TRAC 0 2 0 5.00E-01 2.928876764061E-01 9.014155799165E-01 0 7.762562490450E-03 0 0
TRAC 0 2 0 5.00E-01 3.059338362662E-01 9.415675313413E-01 0 3.533542510483E-03 0 0
TRAC 0 2 0 5.00E-01 1.139969875630E-01 8.282365952950E-02 0 3.533542510483E-03 0 0
TRAC 0 2 0 5.00E-01 2.579568939725E-01 1.874166538632E-01 0 7.762562490450E-03 0 0
TRAC 0 2 0 5.00E-01 3.940450921848E-01 2.862905174240E-01 0 1.095042771191E-02 0 0
TRAC 0 2 0 5.00E-01 5.169376001973E-01 3.755771508684E-01 0 1.266005232780E-02 0 0
TRAC 0 2 0 5.00E-01 6.223214721426E-01 4.521430156025E-01 0 1.266005232780E-02 0 0
TRAC 0 2 0 5.00E-01 7.065670261996E-01 5.133509934230E-01 0 1.095042771191E-02 0 0
TRAC 0 2 0 5.00E-01 7.667898917171E-01 5.571054663771E-01 0 7.762562490450E-03 0 0
TRAC 0 2 0 5.00E-01 8.009451816535E-01 5.819207370723E-01 0 3.533542510483E-03 0 0
TRAC 0 2 0 5.00E-01 1.409080258581E-01 0 0 3.533542510483E-03 0 0
TRAC 0 2 0 5.00E-01 3.188522562147E-01 0 0 7.762562490450E-03 0 0
TRAC 0 2 0 5.00E-01 4.870665201460E-01 0 0 1.095042771191E-02 0 0
TRAC 0 2 0 5.00E-01 6.389700139695E-01 0 0 1.266005232780E-02 0 0
TRAC 0 2 0 5.00E-01 7.692316434260E-01 0 0 1.266005232780E-02 0 0
TRAC 0 2 0 5.00E-01 8.733648750426E-01 0 0 1.095042771191E-02 0 0
TRAC 0 2 0 5.00E-01 9.478044306221E-01 0 0 7.762562490450E-03 0 0
TRAC 0 2 0 5.00E-01 9.900226907747E-01 0 0 3.533542510483E-03 0 0
TRAC 0 2 0 5.00E-01 1.139969875630E-01 -8.282365952950E-02 0 3.533542510483E-03 0 0
TRAC 0 2 0 5.00E-01 2.579568939725E-01 -1.874166538632E-01 0 7.762562490450E-03 0 0
TRAC 0 2 0 5.00E-01 3.940450921848E-01 -2.862905174240E-01 0 1.095042771191E-02 0 0
TRAC 0 2 0 5.00E-01 5.169376001973E-01 -3.755771508684E-01 0 1.266005232780E-02 0 0
TRAC 0 2 0 5.00E-01 6.223214721426E-01 -4.521430156025E-01 0 1.266005232780E-02 0 0
TRAC 0 2 0 5.00E-01 7.065670261996E-01 -5.133509934230E-01 0 1.095042771191E-02 0 0
TRAC 0 2 0 5.00E-01 7.667898917171E-01 -5.571054663771E-01 0 7.762562490450E-03 0 0
TRAC 0 2 0 5.00E-01 8.009451816535E-01 -5.819207370723E-01 0 3.533542510483E-03 0 0
TRAC 0 2 0 5.00E-01 4.354297463398E-02 -1.340114961960E-01 0 3.533542510483E-03 0 0
TRAC 0 2 0 5.00E-01 9.853076586513E-02 -3.032465160084E-01 0 7.762562490450E-03 0 0
TRAC 0 2 0 5.00E-01 1.505118321145E-01 -4.632277878489E-01 0 1.095042771191E-02 0 0
TRAC 0 2 0 5.00E-01 1.974525932126E-01 -6.076965955029E-01 0 1.266005232780E-02 0 0
TRAC 0 2 0 5.00E-01 2.377056504296E-01 -7.315827670270E-01 0 1.266005232780E-02 0 0
TRAC 0 2 0 5.00E-01 2.698845886783E-01 -8.306193555126E-01 0 1.095042771191E-02 0 0
TRAC 0 2 0 5.00E-01 2.928876764061E-01 -9.014155799165E-01 0 7.762562490450E-03 0 0
TRAC 0 2 0 5.00E-01 3.059338362662E-01 -9.415675313413E-01 0 3.533542510483E-03 0 0
TRAC 0 3 0 5.00E-01 4.354297463398E-02 1.340114961960E-01 0 3.533542510483E-03 0 0
TRAC 0 3 0 5.00E-01 9.853076586513E-02 3.032465160084E-01 0 7.762562490450E-03 0 0
TRAC 0 3 0 5.00E-01 1.505118321145E-01 4.632277878489E-01 0 1.095042771191E-02 0 0
TRAC 0 3 0 5.00E-01 1.974525932126E-01 6.076965955029E-01 0 1.266005232780E-02 0 0
TRAC 0 3 0 5.00E-01 2.377056504296E-01 7.315827670270E-01 0 1.266005232780E-02 0 0
TRAC 0 3 0 5.00E-01 2.698845886783E-01 8.306193555126E-01 0 1.095042771191E-02 0 0
TRAC 0 3 0 5.00E-01 2.928876764061E-01 9.014155799165E-01 0 7.762562490450E-03 0 0
TRAC 0 3 0 5.00E-01 3.059338362662E-01 9.415675313413E-01 0 3.533542510483E-03 0 0
TRAC 0 3 0 5.00E-01 1.139969875630E-01 8.282365952950E-02 0 3.533542510483E-03 0 0
TRAC 0 3 0 5.00E-01 2.579568939725E-01 1.874166538632E-01 0 7.762562490450E-03 0 0
TRAC 0 3 0 5.00E-01 3.940450921848E-01 2.862905174240E-01 0 1.095042771191E-02 0 0
TRAC 0 3 0 5.00E-01 5.169376001973E-01 3.755771508684E-01 0 1.266005232780E-02 0 0
TRAC 0 3 0 5.00E-01 6.223214721426E-01 4.521430156025E-01 0 1.266005232780E-02 0 0
TRAC 0 3 0 5.00E-01 7.065670261996E-01 5.133509934230E-01 0 1.095042771191E-02 0 0
TRAC 0 3 0 5.00E-01 7.667898917171E-01 5.571054663771E-01 0 7.762562490450E-03 0 0
TRAC 0 3 0 5.00E-01 8.009451816535E-01 5.819207370723E-01 0 3.533542510483E-03 0 0
TRAC 0 3 0 5.00E-01 1.409080258581E-01 0 0 3.533542510483E-03 0 0
TRAC 0 3 0 5.00E-01 3.188522562147E-01 0 0 7.762562490450E-03 0 0
TRAC 0 3 0 5.00E-01 4.870665201460E-01 0 0 1.095042771191E-02 0 0
TRAC 0 3 0 5.00E-01 6.389700139695E-01 0 0 1.266005232780E-02 0 0
TRAC 0 3 0 5.00E-01 7.692316434260E-01 0 0 1.266005232780E-02 0 0
TRAC 0 3 0 5.00E-01 8.733648750426E-01 0 0 1.095042771191E-02 0 0
TRAC 0 3 0 5.00E-01 9.478044306221E-01 0 0 7.762562490450E-03 0 0
TRAC 0 3 0 5.00E-01 9.900226907747E-01 0 0 3.533542510483E-03 0 0
TRAC 0 3 0 5.00E-01 1.139969875630E-01 -8.282365952950E-02 0 3.533542510483E-03 0 0
TRAC 0 3 0 5.00E-01 2.579568939725E-01 -1.874166538632E-01 0 7.762562490450E-03 0 0
TRAC 0 3 0 5.00E-01 3.940450921848E-01 -2.862905174240E-01 0 1.095042771191E-02 0 0
TRAC 0 3 0 5.00E-01 5.169376001973E-01 -3.755771508684E-01 0 1.266005232780E-02 0 0
TRAC 0 3 0 5.00E-01 6.223214721426E-01 -4.521430156025E-01 0 1.266005232780E-02 0 0
TRAC 0 3 0 5.00E-01 7.065670261996E-01 -5.133509934230E-01 0 1.095042771191E-02 0 0
TRAC 0 3 0 5.00E-01 7.667898917171E-01 -5.571054663771E-01 0 7.762562490450E-03 0 0
TRAC 0 3 0 5.00E-01 8.009451816535E-01 -5.819207370723E-01 0 3.533542510483E-03 0 0
TRAC 0 3 0 5.00E-01 4.354297463398E-02 -1.340114961960E-01 0 3.533542510483E-03 0 0
TRAC 0 3 0 5.00E-01 9.853076586513E-02 -3.032465160084E-01 0 7.762562490450E-03 0 0
TRAC 0 3 0 5.00E-01 1.505118321145E-01 -4.632277878489E-01 0 1.095042771191E-02 0 0
TRAC 0 3 0 5.00E-01 1.974525932126E-01 -6.076965955029E-01 0 1.266005232780E-02 0 0
TRAC 0 3 0 5.00E-01 2.377056504296E-01 -7.315827670270E-01 0 1.266005232780E-02 0 0
TRAC 0 3 0 5.00E-01 2.698845886783E-01 -8.306193555126E-01 0 1.095042771191E-02 0 0
TRAC 0 3 0 5.00E-01 2.928876764061E-01 -9.014155799165E-01 0 7.762562490450E-03 0 0
TRAC 0 3 0 5.00E-01 3.059338362662E-01 -9.415675313413E-01 0 3.533542510483E-03 0 0
BLNK Operands for field 3.
TRAC 0 1 0 1 4.354297463398E-02 1.340114961960E-01 0 3.533542510483E-03 0 0
TRAC 0 1 0 1 9.853076586513E-02 3.032465160084E-01 0 7.762562490450E-03 0 0
TRAC 0 1 0 1 1.505118321145E-01 4.632277878489E-01 0 1.095042771191E-02 0 0
TRAC 0 1 0 1 1.974525932126E-01 6.076965955029E-01 0 1.266005232780E-02 0 0
TRAC 0 1 0 1 2.377056504296E-01 7.315827670270E-01 0 1.266005232780E-02 0 0
TRAC 0 1 0 1 2.698845886783E-01 8.306193555126E-01 0 1.095042771191E-02 0 0
TRAC 0 1 0 1 2.928876764061E-01 9.014155799165E-01 0 7.762562490450E-03 0 0
TRAC 0 1 0 1 3.059338362662E-01 9.415675313413E-01 0 3.533542510483E-03 0 0
TRAC 0 1 0 1 1.139969875630E-01 8.282365952950E-02 0 3.533542510483E-03 0 0
TRAC 0 1 0 1 2.579568939725E-01 1.874166538632E-01 0 7.762562490450E-03 0 0
TRAC 0 1 0 1 3.940450921848E-01 2.862905174240E-01 0 1.095042771191E-02 0 0
TRAC 0 1 0 1 5.169376001973E-01 3.755771508684E-01 0 1.266005232780E-02 0 0
TRAC 0 1 0 1 6.223214721426E-01 4.521430156025E-01 0 1.266005232780E-02 0 0
TRAC 0 1 0 1 7.065670261996E-01 5.133509934230E-01 0 1.095042771191E-02 0 0
TRAC 0 1 0 1 7.667898917171E-01 5.571054663771E-01 0 7.762562490450E-03 0 0
TRAC 0 1 0 1 8.009451816535E-01 5.819207370723E-01 0 3.533542510483E-03 0 0
TRAC 0 1 0 1 1.409080258581E-01 0 0 3.533542510483E-03 0 0
TRAC 0 1 0 1 3.188522562147E-01 0 0 7.762562490450E-03 0 0
TRAC 0 1 0 1 4.870665201460E-01 0 0 1.095042771191E-02 0 0
TRAC 0 1 0 1 6.389700139695E-01 0 0 1.266005232780E-02 0 0
TRAC 0 1 0 1 7.692316434260E-01 0 0 1.266005232780E-02 0 0
TRAC 0 1 0 1 8.733648750426E-01 0 0 1.095042771191E-02 0 0
TRAC 0 1 0 1 9.478044306221E-01 0 0 7.762562490450E-03 0 0
TRAC 0 1 0 1 9.900226907747E-01 0 0 3.533542510483E-03 0 0
TRAC 0 1 0 1 1.139969875630E-01 -8.282365952950E-02 0 3.533542510483E-03 0 0
TRAC 0 1 0 1 2.579568939725E-01 -1.874166538632E-01 0 7.762562490450E-03 0 0
TRAC 0 1 0 1 3.940450921848E-01 -2.862905174240E-01 0 1.095042771191E-02 0 0
TRAC 0 1 0 1 5.169376001973E-01 -3.755771508684E-01 0 1.266005232780E-02 0 0
TRAC 0 1 0 1 6.223214721426E-01 -4.521430156025E-01 0 1.266005232780E-02 0 0
TRAC 0 1 0 1 7.065670261996E-01 -5.133509934230E-01 0 1.095042771191E-02 0 0
TRAC 0 1 0 1 7.667898917171E-01 -5.571054663771E-01 0 7.762562490450E-03 0 0
TRAC 0 1 0 1 8.009451816535E-01 -5.819207370723E-01 0 3.533542510483E-03 0 0
TRAC 0 1 0 1 4.354297463398E-02 -1.340114961960E-01 0 3.533542510483E-03 0 0
TRAC 0 1 0 1 9.853076586513E-02 -3.032465160084E-01 0 7.762562490450E-03 0 0
TRAC 0 1 0 1 1.505118321145E-01 -4.632277878489E-01 0 1.095042771191E-02 0 0
TRAC 0 1 0 1 1.974525932126E-01 -6.076965955029E-01 0 1.266005232780E-02 0 0
TRAC 0 1 0 1 2.377056504296E-01 -7.315827670270E-01 0 1.266005232780E-02 0 0
TRAC 0 1 0 1 2.698845886783E-01 -8.306193555126E-01 0 1.095042771191E-02 0 0
TRAC 0 1 0 1 2.928876764061E-01 -9.014155799165E-01 0 7.762562490450E-03 0 0
TRAC 0 1 0 1 3.059338362662E-01 -9.415675313413E-01 0 3.533542510483E-03 0 0
TRAC 0 2 0 1 4.354297463398E-02 1.340114961960E-01 0 3.533542510483E-03 0 0
TRAC 0 2 0 1 9.853076586513E-02 3.032465160084E-01 0 7.762562490450E-03 0 0
TRAC 0 2 0 1 1.505118321145E-01 4.632277878489E-01 0 1.095042771191E-02 0 0
TRAC 0 2 0 1 1.974525932126E-01 6.076965955029E-01 0 1.266005232780E-02 0 0
TRAC 0 2 0 1 2.377056504296E-01 7.315827670270E-01 0 1.266005232780E-02 0 0
TRAC 0 2 0 1 2.698845886783E-01 8.306193555126E-01 0 1.095042771191E-02 0 0
TRAC 0 2 0 1 2.928876764061E-01 9.014155799165E-01 0 7.762562490450E-03 0 0
TRAC 0 2 0 1 3.059338362662E-01 9.415675313413E-01 0 3.533542510483E-03 0 0
TRAC 0 2 0 1 1.139969875630E-01 8.282365952950E-02 0 3.533542510483E-03 0 0
TRAC 0 2 0 1 2.579568939725E-01 1.874166538632E-01 0 7.762562490450E-03 0 0
TRAC 0 2 0 1 3.940450921848E-01 2.862905174240E-01 0 1.095042771191E-02 0 0
TRAC 0 2 0 1 5.169376001973E-01 3.755771508684E-01 0 1.266005232780E-02 0 0
TRAC 0 2 0 1 6.223214721426E-01 4.521430156025E-01 0 1.266005232780E-02 0 0
TRAC 0 2 0 1 7.065670261996E-01 5.133509934230E-01 0 1.095042771191E-02 0 0
TRAC 0 2 0 1 7.667898917171E-01 5.571054663771E-01 0 7.762562490450E-03 0 0
TRAC 0 2 0 1 8.009451816535E-01 5.819207370723E-01 0 3.533542510483E-03 0 0
TRAC 0 2 0 1 1.409080258581E-01 0 0 3.533542510483E-03 0 0
TRAC 0 2 0 1 3.188522562147E-01 0 0 7.762562490450E-03 0 0
TRAC 0 2 0 1 4.870665201460E-01 0 0 1.095042771191E-02 0 0
TRAC 0 2 0 1 6.389700139695E-01 0 0 1.266005232780E-02 0 0
TRAC 0 2 0 1 7.692316434260E-01 0 0 1.266005232780E-02 0 0
TRAC 0 2 0 1 8.733648750426E-01 0 0 1.095042771191E-02 0 0
TRAC 0 2 0 1 9.478044306221E-01 0 0 7.762562490450E-03 0 0
TRAC 0 2 0 1 9.900226907747E-01 0 0 3.533542510483E-03 0 0
TRAC 0 2 0 1 1.139969875630E-01 -8.282365952950E-02 0 3.533542510483E-03 0 0
TRAC 0 2 0 1 2.579568939725E-01 -1.874166538632E-01 0 7.762562490450E-03 0 0
TRAC 0 2 0 1 3.940450921848E-01 -2.862905174240E-01 0 1.095042771191E-02 0 0
TRAC 0 2 0 1 5.169376001973E-01 -3.755771508684E-01 0 1.266005232780E-02 0 0
TRAC 0 2 0 1 6.223214721426E-01 -4.521430156025E-01 0 1.266005232780E-02 0 0
TRAC 0 2 0 1 7.065670261996E-01 -5.133509934230E-01 0 1.095042771191E-02 0 0
TRAC 0 2 0 1 7.667898917171E-01 -5.571054663771E-01 0 7.762562490450E-03 0 0
TRAC 0 2 0 1 8.009451816535E-01 -5.819207370723E-01 0 3.533542510483E-03 0 0
TRAC 0 2 0 1 4.354297463398E-02 -1.340114961960E-01 0 3.533542510483E-03 0 0
TRAC 0 2 0 1 9.853076586513E-02 -3.032465160084E-01 0 7.762562490450E-03 0 0
TRAC 0 2 0 1 1.505118321145E-01 -4.632277878489E-01 0 1.095042771191E-02 0 0
TRAC 0 2 0 1 1.974525932126E-01 -6.076965955029E-01 0 1.266005232780E-02 0 0
TRAC 0 2 0 1 2.377056504296E-01 -7.315827670270E-01 0 1.266005232780E-02 0 0
TRAC 0 2 0 1 2.698845886783E-01 -8.306193555126E-01 0 1.095042771191E-02 0 0
TRAC 0 2 0 1 2.928876764061E-01 -9.014155799165E-01 0 7.762562490450E-03 0 0
TRAC 0 2 0 1 3.059338362662E-01 -9.415675313413E-01 0 3.533542510483E-03 0 0
TRAC 0 3 0 1 4.354297463398E-02 1.340114961960E-01 0 3.533542510483E-03 0 0
TRAC 0 3 0 1 9.853076586513E-02 3.032465160084E-01 0 7.762562490450E-03 0 0
TRAC 0 3 0 1 1.505118321145E-01 4.632277878489E-01 0 1.095042771191E-02 0 0
TRAC 0 3 0 1 1.974525932126E-01 6.076965955029E-01 0 1.266005232780E-02 0 0
TRAC 0 3 0 1 2.377056504296E-01 7.315827670270E-01 0 1.266005232780E-02 0 0
TRAC 0 3 0 1 2.698845886783E-01 8.306193555126E-01 0 1.095042771191E-02 0 0
TRAC 0 3 0 1 2.928876764061E-01 9.014155799165E-01 0 7.762562490450E-03 0 0
TRAC 0 3 0 1 3.059338362662E-01 9.415675313413E-01 0 3.533542510483E-03 0 0
TRAC 0 3 0 1 1.139969875630E-01 8.282365952950E-02 0 3.533542510483E-03 0 0
TRAC 0 3 0 1 2.579568939725E-01 1.874166538632E-01 0 7.762562490450E-03 0 0
TRAC 0 3 0 1 3.940450921848E-01 2.862905174240E-01 0 1.095042771191E-02 0 0
TRAC 0 3 0 1 5.169376001973E-01 3.755771508684E-01 0 1.266005232780E-02 0 0
TRAC 0 3 0 1 6.223214721426E-01 4.521430156025E-01 0 1.266005232780E-02 0 0
TRAC 0 3 0 1 7.065670261996E-01 5.133509934230E-01 0 1.095042771191E-02 0 0
TRAC 0 3 0 1 7.667898917171E-01 5.571054663771E-01 0 7.762562490450E-03 0 0
TRAC 0 3 0 1 8.009451816535E-01 5.819207370723E-01 0 3.533542510483E-03 0 0
TRAC 0 3 0 1 1.409080258581E-01 0 0 3.533542510483E-03 0 0
TRAC 0 3 0 1 3.188522562147E-01 0 0 7.762562490450E-03 0 0
TRAC 0 3 0 1 4.870665201460E-01 0 0 1.095042771191E-02 0 0
TRAC 0 3 0 1 6.389700139695E-01 0 0 1.266005232780E-02 0 0
TRAC 0 3 0 1 7.692316434260E-01 0 0 1.266005232780E-02 0 0
TRAC 0 3 0 1 8.733648750426E-01 0 0 1.095042771191E-02 0 0
TRAC 0 3 0 1 9.478044306221E-01 0 0 7.762562490450E-03 0 0
TRAC 0 3 0 1 9.900226907747E-01 0 0 3.533542510483E-03 0 0
TRAC 0 3 0 1 1.139969875630E-01 -8.282365952950E-02 0 3.533542510483E-03 0 0
TRAC 0 3 0 1 2.579568939725E-01 -1.874166538632E-01 0 7.762562490450E-03 0 0
TRAC 0 3 0 1 3.940450921848E-01 -2.862905174240E-01 0 1.095042771191E-02 0 0
TRAC 0 3 0 1 5.169376001973E-01 -3.755771508684E-01 0 1.266005232780E-02 0 0
TRAC 0 3 0 1 6.223214721426E-01 -4.521430156025E-01 0 1.266005232780E-02 0 0
TRAC 0 3 0 1 7.065670261996E-01 -5.133509934230E-01 0 1.095042771191E-02 0 0
TRAC 0 3 0 1 7.667898917171E-01 -5.571054663771E-01 0 7.762562490450E-03 0 0
TRAC 0 3 0 1 8.009451816535E-01 -5.819207370723E-01 0 3.533542510483E-03 0 0
TRAC 0 3 0 1 4.354297463398E-02 -1.340114961960E-01 0 3.533542510483E-03 0 0
TRAC 0 3 0 1 9.853076586513E-02 -3.032465160084E-01 0 7.762562490450E-03 0 0
TRAC 0 3 0 1 1.505118321145E-01 -4.632277878489E-01 0 1.095042771191E-02 0 0
TRAC 0 3 0 1 1.974525932126E-01 -6.076965955029E-01 0 1.266005232780E-02 0 0
TRAC 0 3 0 1 2.377056504296E-01 -7.315827670270E-01 0 1.266005232780E-02 0 0
TRAC 0 3 0 1 2.698845886783E-01 -8.306193555126E-01 0 1.095042771191E-02 0 0
TRAC 0 3 0 1 2.928876764061E-01 -9.014155799165E-01 0 7.762562490450E-03 0 0
TRAC 0 3 0 1 3.059338362662E-01 -9.415675313413E-01 0 3.533542510483E-03 0 0
TOL TOFF   0   0              0              0   0 0 0 0
MNUM 1 1
MOFF   0   1 "" 0 0 0 1 1 0 0.0 "" 0
