VERS 160720 267 100027
MODE SEQ
NAME Ai AF Fisheye-Nikkor 16mm f/2.8D
NOTE 0 according to http://www.nikkor.com:80/story/0053/
PFIL 0 0 0
LANG 0
UNIT MM X W X CM MR CPMM
FNUM 3.40E+00 0
ENVD 2.00E+01 1 0
GFAC 0 0
GCAT OHARA-CALDWELL2 
RAIM 0 2 1 1 0 1 0 0 0 1
PUSH 3.380684731769E+01 0 0 0 0 0
SDMA 0 1 0
OMMA 1 1
FTYP 0 0 3 3 0 0 0
ROPD 2
PICB 1
XFLN 0 0 0 0 0 0 0 0 0 0 0 0
YFLN 0 6.00E+01 9.00E+01 0 0 0 0 0 0 0 0 0
FWGN 1 1 1 1 1 1 1 1 1 1 1 1
VDXN 0 0 0 0 0 0 0 0 0 0 0 0
VDYN 0 0 0 0 0 0 0 0 0 0 0 0
VCXN 0 0 0 0 0 0 0 0 0 0 0 0
VCYN 0 0 0 0 0 0 0 0 0 0 0 0
VANN 0 0 0 0 0 0 0 0 0 0 0 0
WAVM 1 4.8613270E-01 1
WAVM 2 5.8756180E-01 1
WAVM 3 6.5627250E-01 1
WAVM 4 5.50E-01 1
WAVM 5 5.50E-01 1
WAVM 6 5.50E-01 1
WAVM 7 5.50E-01 1
WAVM 8 5.50E-01 1
WAVM 9 5.50E-01 1
WAVM 10 5.50E-01 1
WAVM 11 5.50E-01 1
WAVM 12 5.50E-01 1
WAVM 13 5.50E-01 1
WAVM 14 5.50E-01 1
WAVM 15 5.50E-01 1
WAVM 16 5.50E-01 1
WAVM 17 5.50E-01 1
WAVM 18 5.50E-01 1
WAVM 19 5.50E-01 1
WAVM 20 5.50E-01 1
WAVM 21 5.50E-01 1
WAVM 22 5.50E-01 1
WAVM 23 5.50E-01 1
WAVM 24 5.50E-01 1
PWAV 2
POLS 1 0 1 0 0 1 0
GLRS 8 0
GSTD 0 100.000 100.000 100.000 100.000 100.000 100.000 0 1 1 0 0 1 1 1 1 1 1
NSCD 100 500 0 1.00E-03 5 1.00E-06 0 0 0 0 0 0 1000000 0 2
COFN QF "COATING.DAT" "SCATTER_PROFILE.DAT" "ABG_DATA.DAT" "PROFILE.GRD"
COFN COATING.DAT SCATTER_PROFILE.DAT ABG_DATA.DAT PROFILE.GRD
SURF 0
  TYPE STANDARD
  FIMP 

  CURV 0.0 0 0 0 0 ""
  HIDE 0 0 0 0 0 0 0 0 0 0
  MIRR 2 0
  SLAB 1
  DISZ INFINITY
  DIAM 0 0 0 0 1 ""
  MEMA 0 0 0 0 1 ""
  POPS 0 0 0 0 0 0 0 0 1 1 1 1 0 0 0 0
SURF 1
  TYPE STANDARD
  FIMP 

  CURV 1.113923579079176447E-02 0 0 0 0 ""
  HIDE 0 0 0 0 0 0 0 0 0 0
  MIRR 2 0
  SLAB 2
  DISZ 2.124709627452E+00
  GLAS S-BSM16 3 0 1.516329924761E+00 6.414202197113E+01 -2.40E-03 0 0 0 0 0 
  DIAM 3.316733067729E+01 1 0 0 1 ""
  MEMA 3.316733067729E+01 0 0 0 1 ""
  POPS 0 0 0 0 0 0 0 0 1 1 1 1 0 0 0 0
  FLAP 0 3.316733067729E+01 0
SURF 2
  TYPE STANDARD
  FIMP 

  CURV 5.173142649854050451E-02 0 0 0 0 ""
  HIDE 0 0 0 0 0 0 0 0 0 0
  MIRR 2 0
  SLAB 2
  DISZ 1.325588245513E+01
  DIAM 1.852589641434E+01 1 0 0 1 ""
  MEMA 3.316733067729E+01 0 0 0 1 ""
  POPS 0 0 0 0 0 0 0 0 1 1 1 1 0 0 0 0
  FLAP 0 1.852589641434E+01 0
SURF 3
  TYPE STANDARD
  FIMP 

  CURV 5.825349964161025823E-03 0 0 0 0 ""
  HIDE 0 0 0 0 0 0 0 0 0 0
  MIRR 2 0
  SLAB 2
  DISZ 2.21789444857E+00
  GLAS S-LAM60 3 0 1.516329924761E+00 6.414202197113E+01 -2.40E-03 0 0 0 0 0 
  DIAM 1.834661354582E+01 1 0 0 1 ""
  MEMA 1.834661354582E+01 0 0 0 1 ""
  POPS 0 0 0 0 0 0 0 0 1 1 1 1 0 0 0 0
  FLAP 0 1.834661354582E+01 0
SURF 4
  TYPE STANDARD
  FIMP 

  CURV 5.195500603858452249E-02 0 0 0 0 ""
  HIDE 0 0 0 0 0 0 0 0 0 0
  MIRR 2 0
  SLAB 2
  DISZ 5.116154502874E+00
  DIAM 1.416334661355E+01 1 0 0 1 ""
  MEMA 1.834661354582E+01 0 0 0 1 ""
  POPS 0 0 0 0 0 0 0 0 1 1 1 1 0 0 0 0
  FLAP 0 1.416334661355E+01 0
SURF 5
  TYPE STANDARD
  FIMP 

  CURV 2.366149401693866394E-02 0 0 0 0 ""
  HIDE 0 0 0 0 0 0 0 0 0 0
  MIRR 2 0
  SLAB 2
  DISZ 1.035303169242E+01
  GLAS S-TIM28 3 0 1.516329924761E+00 6.414202197113E+01 -2.40E-03 0 0 0 0 0 
  DIAM 1.254980079681E+01 1 0 0 1 ""
  MEMA 1.254980079681E+01 0 0 0 1 ""
  POPS 0 0 0 0 0 0 0 0 1 1 1 1 0 0 0 0
  FLAP 0 1.254980079681E+01 0
SURF 6
  TYPE STANDARD
  FIMP 

  CURV -5.040144327140298058E-02 0 0 0 0 ""
  HIDE 0 0 0 0 0 0 0 0 0 0
  MIRR 2 0
  SLAB 2
  DISZ 1.150677812311E+01
  GLAS S-LAL59 3 0 1.487489934771E+00 7.023625207231E+01 2.20E-03 0 0 0 0 0 
  DIAM 1.254980079681E+01 1 0 0 1 ""
  MEMA 1.254980079681E+01 0 0 0 1 ""
  POPS 0 0 0 0 0 0 0 0 1 1 1 1 0 0 0 0
  FLAP 0 1.254980079681E+01 0
SURF 7
  TYPE STANDARD
  FIMP 

  CURV -1.865363720432903008E-02 0 0 0 0 ""
  HIDE 0 0 0 0 0 0 0 0 0 0
  MIRR 2 0
  SLAB 2
  DISZ 8.42019400865E+00
  DIAM 9.023904382470E+00 1 0 0 1 ""
  MEMA 1.254980079681E+01 0 0 0 1 ""
  POPS 0 0 0 0 0 0 0 0 1 1 1 1 0 0 0 0
  FLAP 0 9.023904382470E+00 0
SURF 8
  STOP
  TYPE STANDARD
  FIMP 

  CURV 0.0 0 0 0 0 ""
  HIDE 0 0 0 0 0 0 0 0 0 0
  MIRR 2 0
  SLAB 2
  DISZ 5.740769214826E+00
  DIAM 9.023904382470E+00 1 0 0 1 ""
  MEMA 9.023904382470E+00 0 0 0 1 ""
  POPS 0 0 0 0 0 0 0 0 1 1 1 1 0 0 0 0
SURF 9
  TYPE STANDARD
  FIMP 

  CURV -1.009455412722756740E-02 0 0 0 0 ""
  HIDE 0 0 0 0 0 0 0 0 0 0
  MIRR 2 0
  SLAB 2
  DISZ 1.592976716646E+00
  GLAS S-TIH13 3 0 1.487489934771E+00 7.023625207231E+01 2.20E-03 0 0 0 0 0 
  DIAM 1.021912350598E+01 1 0 0 1 ""
  MEMA 1.021912350598E+01 0 0 0 1 ""
  POPS 0 0 0 0 0 0 0 0 1 1 1 1 0 0 0 0
  FLAP 0 1.021912350598E+01 0
SURF 10
  TYPE STANDARD
  FIMP 

  CURV 3.176298966725377149E-02 0 0 0 0 ""
  HIDE 0 0 0 0 0 0 0 0 0 0
  MIRR 2 0
  SLAB 2
  DISZ 6.293087610791E+00
  GLAS S-BSL7 3 0 1.516329924761E+00 6.414202197113E+01 -2.40E-03 0 0 0 0 0 
  DIAM 1.021912350598E+01 1 0 0 1 ""
  MEMA 1.021912350598E+01 0 0 0 1 ""
  POPS 0 0 0 0 0 0 0 0 1 1 1 1 0 0 0 0
  FLAP 0 1.021912350598E+01 0
SURF 11
  TYPE STANDARD
  FIMP 

  CURV -3.715227862807933545E-02 0 0 0 0 ""
  HIDE 0 0 0 0 0 0 0 0 0 0
  MIRR 2 0
  SLAB 2
  DISZ 2.888143841319E-01
  DIAM 1.021912350598E+01 1 0 0 1 ""
  MEMA 1.021912350598E+01 0 0 0 1 ""
  POPS 0 0 0 0 0 0 0 0 1 1 1 1 0 0 0 0
  FLAP 0 1.021912350598E+01 0
SURF 12
  TYPE STANDARD
  FIMP 

  CURV 1.621722463292658151E-02 0 0 0 0 ""
  HIDE 0 0 0 0 0 0 0 0 0 0
  MIRR 2 0
  SLAB 2
  DISZ 7.078860015861E+00
  GLAS S-LAM3 3 0 1.516329924761E+00 6.414202197113E+01 -2.40E-03 0 0 0 0 0 
  DIAM 1.219123505976E+01 1 0 0 1 ""
  MEMA 1.344621513944E+01 0 0 0 1 ""
  POPS 0 0 0 0 0 0 0 0 1 1 1 1 0 0 0 0
  FLAP 0 1.219123505976E+01 0
SURF 13
  TYPE STANDARD
  FIMP 

  CURV -4.011318809389252671E-02 0 0 0 0 ""
  HIDE 0 0 0 0 0 0 0 0 0 0
  MIRR 2 0
  SLAB 2
  DISZ 1.646218875391E+00
  GLAS S-TIH14 3 0 1.487489934771E+00 7.023625207231E+01 2.20E-03 0 0 0 0 0 
  DIAM 1.219123505976E+01 1 0 0 1 ""
  MEMA 1.344621513944E+01 0 0 0 1 ""
  POPS 0 0 0 0 0 0 0 0 1 1 1 1 0 0 0 0
  FLAP 0 1.219123505976E+01 0
SURF 14
  TYPE STANDARD
  FIMP 

  CURV -1.923006190449238692E-02 0 0 0 0 ""
  HIDE 0 0 0 0 0 0 0 0 0 0
  MIRR 2 0
  SLAB 2
  DISZ 1.143708728455E+00
  DIAM 1.344621513944E+01 1 0 0 1 ""
  MEMA 1.344621513944E+01 0 0 0 1 ""
  POPS 0 0 0 0 0 0 0 0 1 1 1 1 0 0 0 0
  FLAP 0 1.344621513944E+01 0
SURF 15
  TYPE STANDARD
  FIMP 

  CURV 0.0 0 0 0 0 ""
  HIDE 0 0 0 0 0 0 0 0 0 0
  MIRR 2 0
  SLAB 2
  DISZ 1.494233045824E+00
  GLAS S-FTL10 3 0 1.516329924761E+00 6.414202197113E+01 -2.40E-03 0 0 0 0 0 
  DIAM 1.43426294827E+01 1 0 0 1 ""
  MEMA 1.43426294827E+01 0 0 0 1 ""
  POPS 0 0 0 0 0 0 0 0 1 1 1 1 0 0 0 0
  FLAP 0 1.43426294827E+01 0
SURF 16
  TYPE STANDARD
  FIMP 

  CURV 0.0 0 0 0 0 ""
  HIDE 0 0 0 0 0 0 0 0 0 0
  MIRR 2 0
  SLAB 2
  DISZ 3.746905884210E+01
  MAZH 0 7.00E-01
  DIAM 1.43426294827E+01 1 0 0 1 ""
  MEMA 1.43426294827E+01 0 0 0 1 ""
  POPS 0 0 0 0 0 0 0 0 1 1 1 1 0 0 0 0
  FLAP 0 1.43426294827E+01 0
SURF 17
  TYPE STANDARD
  FIMP 

  CURV 0.0 0 0 0 0 ""
  HIDE 0 0 0 0 0 0 0 0 0 0
  MIRR 2 0
  SLAB 3
  DISZ 0
  DIAM 2.10678235798E+01 0 0 0 1 ""
  MEMA 2.10678235798E+01 0 0 0 1 ""
  POPS 0 0 0 0 0 0 0 0 1 1 1 1 0 0 0 0
REAY 1 2 0 1 0 -1.0E+00 0 0 0 0
OPGT 0 0 0 0 0 0 -2.770E+02 1 0 0
REAY 3 2 0 1 0 -1.0E+00 0 0 0 0
OPGT 0 0 0 0 0 0 -1.530E+02 1 0 0
REAY 11 2 0 1 0 1 0 0 0 0
OPLT 0 0 0 0 0 0 8.50E+01 1 0 0
REAY 14 2 0 1 0 1 0 0 0 0
OPLT 0 0 0 0 0 0 1.120E+02 1 0 0
BLNK 
REAY 17 2 0 1 0 0 0 0 0 0
DMFS 0 0 0 0 0 0 0 0 0 0
BLNK Sequential merit function: RMS spot radius centroid GQ 8 rings 12 arms
BLNK No air or glass constraints.
BLNK Operands for field 1.
TRAC 0 1 0 0 1.409080258581E-01 0 0 1.766771255242E-02 0 0
TRAC 0 1 0 0 3.188522562147E-01 0 0 3.881281245220E-02 0 0
TRAC 0 1 0 0 4.870665201460E-01 0 0 5.475213855953E-02 0 0
TRAC 0 1 0 0 6.389700139695E-01 0 0 6.330026163542E-02 0 0
TRAC 0 1 0 0 7.692316434260E-01 0 0 6.330026163542E-02 0 0
TRAC 0 1 0 0 8.733648750426E-01 0 0 5.475213855953E-02 0 0
TRAC 0 1 0 0 9.478044306221E-01 0 0 3.881281245220E-02 0 0
TRAC 0 1 0 0 9.900226907747E-01 0 0 1.766771255242E-02 0 0
TRAC 0 2 0 0 1.409080258581E-01 0 0 1.766771255242E-02 0 0
TRAC 0 2 0 0 3.188522562147E-01 0 0 3.881281245220E-02 0 0
TRAC 0 2 0 0 4.870665201460E-01 0 0 5.475213855953E-02 0 0
TRAC 0 2 0 0 6.389700139695E-01 0 0 6.330026163542E-02 0 0
TRAC 0 2 0 0 7.692316434260E-01 0 0 6.330026163542E-02 0 0
TRAC 0 2 0 0 8.733648750426E-01 0 0 5.475213855953E-02 0 0
TRAC 0 2 0 0 9.478044306221E-01 0 0 3.881281245220E-02 0 0
TRAC 0 2 0 0 9.900226907747E-01 0 0 1.766771255242E-02 0 0
TRAC 0 3 0 0 1.409080258581E-01 0 0 1.766771255242E-02 0 0
TRAC 0 3 0 0 3.188522562147E-01 0 0 3.881281245220E-02 0 0
TRAC 0 3 0 0 4.870665201460E-01 0 0 5.475213855953E-02 0 0
TRAC 0 3 0 0 6.389700139695E-01 0 0 6.330026163542E-02 0 0
TRAC 0 3 0 0 7.692316434260E-01 0 0 6.330026163542E-02 0 0
TRAC 0 3 0 0 8.733648750426E-01 0 0 5.475213855953E-02 0 0
TRAC 0 3 0 0 9.478044306221E-01 0 0 3.881281245220E-02 0 0
TRAC 0 3 0 0 9.900226907747E-01 0 0 1.766771255242E-02 0 0
BLNK Operands for field 2.
TRAC 0 1 0 6.666666666667E-01 3.646968069988E-02 1.361067013078E-01 0 2.944618758736E-03 0 0
TRAC 0 1 0 6.666666666667E-01 8.252503648227E-02 3.079876290483E-01 0 6.468802075337E-03 0 0
TRAC 0 1 0 6.666666666667E-01 1.260620916442E-01 4.704701309245E-01 0 9.125356426589E-03 0 0
TRAC 0 1 0 6.666666666667E-01 1.653776088647E-01 6.171976387174E-01 0 1.055004360590E-02 0 0
TRAC 0 1 0 6.666666666667E-01 1.990917994142E-01 7.430207107839E-01 0 1.055004360590E-02 0 0
TRAC 0 1 0 6.666666666667E-01 2.260434629846E-01 8.436056885774E-01 0 9.125356426589E-03 0 0
TRAC 0 1 0 6.666666666667E-01 2.453098376775E-01 9.155087778091E-01 0 6.468802075337E-03 0 0
TRAC 0 1 0 6.666666666667E-01 2.562367274561E-01 9.562884856315E-01 0 2.944618758736E-03 0 0
TRAC 0 1 0 6.666666666667E-01 9.963702060788E-02 9.963702060788E-02 0 2.944618758736E-03 0 0
TRAC 0 1 0 6.666666666667E-01 2.254625925660E-01 2.254625925660E-01 0 6.468802075337E-03 0 0
TRAC 0 1 0 6.666666666667E-01 3.444080392830E-01 3.444080392830E-01 0 9.125356426589E-03 0 0
TRAC 0 1 0 6.666666666667E-01 4.518200298527E-01 4.518200298527E-01 0 1.055004360590E-02 0 0
TRAC 0 1 0 6.666666666667E-01 5.439289113698E-01 5.439289113698E-01 0 1.055004360590E-02 0 0
TRAC 0 1 0 6.666666666667E-01 6.175622255928E-01 6.175622255928E-01 0 9.125356426589E-03 0 0
TRAC 0 1 0 6.666666666667E-01 6.701989401315E-01 6.701989401315E-01 0 6.468802075337E-03 0 0
TRAC 0 1 0 6.666666666667E-01 7.000517581753E-01 7.000517581753E-01 0 2.944618758736E-03 0 0
TRAC 0 1 0 6.666666666667E-01 1.361067013078E-01 3.646968069988E-02 0 2.944618758736E-03 0 0
TRAC 0 1 0 6.666666666667E-01 3.079876290483E-01 8.252503648227E-02 0 6.468802075337E-03 0 0
TRAC 0 1 0 6.666666666667E-01 4.704701309245E-01 1.260620916442E-01 0 9.125356426589E-03 0 0
TRAC 0 1 0 6.666666666667E-01 6.171976387174E-01 1.653776088647E-01 0 1.055004360590E-02 0 0
TRAC 0 1 0 6.666666666667E-01 7.430207107839E-01 1.990917994142E-01 0 1.055004360590E-02 0 0
TRAC 0 1 0 6.666666666667E-01 8.436056885774E-01 2.260434629846E-01 0 9.125356426589E-03 0 0
TRAC 0 1 0 6.666666666667E-01 9.155087778091E-01 2.453098376775E-01 0 6.468802075337E-03 0 0
TRAC 0 1 0 6.666666666667E-01 9.562884856315E-01 2.562367274561E-01 0 2.944618758736E-03 0 0
TRAC 0 1 0 6.666666666667E-01 1.361067013078E-01 -3.646968069988E-02 0 2.944618758736E-03 0 0
TRAC 0 1 0 6.666666666667E-01 3.079876290483E-01 -8.252503648227E-02 0 6.468802075337E-03 0 0
TRAC 0 1 0 6.666666666667E-01 4.704701309245E-01 -1.260620916442E-01 0 9.125356426589E-03 0 0
TRAC 0 1 0 6.666666666667E-01 6.171976387174E-01 -1.653776088647E-01 0 1.055004360590E-02 0 0
TRAC 0 1 0 6.666666666667E-01 7.430207107839E-01 -1.990917994142E-01 0 1.055004360590E-02 0 0
TRAC 0 1 0 6.666666666667E-01 8.436056885774E-01 -2.260434629846E-01 0 9.125356426589E-03 0 0
TRAC 0 1 0 6.666666666667E-01 9.155087778091E-01 -2.453098376775E-01 0 6.468802075337E-03 0 0
TRAC 0 1 0 6.666666666667E-01 9.562884856315E-01 -2.562367274561E-01 0 2.944618758736E-03 0 0
TRAC 0 1 0 6.666666666667E-01 9.963702060788E-02 -9.963702060788E-02 0 2.944618758736E-03 0 0
TRAC 0 1 0 6.666666666667E-01 2.254625925660E-01 -2.254625925660E-01 0 6.468802075337E-03 0 0
TRAC 0 1 0 6.666666666667E-01 3.444080392830E-01 -3.444080392830E-01 0 9.125356426589E-03 0 0
TRAC 0 1 0 6.666666666667E-01 4.518200298527E-01 -4.518200298527E-01 0 1.055004360590E-02 0 0
TRAC 0 1 0 6.666666666667E-01 5.439289113698E-01 -5.439289113698E-01 0 1.055004360590E-02 0 0
TRAC 0 1 0 6.666666666667E-01 6.175622255928E-01 -6.175622255928E-01 0 9.125356426589E-03 0 0
TRAC 0 1 0 6.666666666667E-01 6.701989401315E-01 -6.701989401315E-01 0 6.468802075337E-03 0 0
TRAC 0 1 0 6.666666666667E-01 7.000517581753E-01 -7.000517581753E-01 0 2.944618758736E-03 0 0
TRAC 0 1 0 6.666666666667E-01 3.646968069988E-02 -1.361067013078E-01 0 2.944618758736E-03 0 0
TRAC 0 1 0 6.666666666667E-01 8.252503648227E-02 -3.079876290483E-01 0 6.468802075337E-03 0 0
TRAC 0 1 0 6.666666666667E-01 1.260620916442E-01 -4.704701309245E-01 0 9.125356426589E-03 0 0
TRAC 0 1 0 6.666666666667E-01 1.653776088647E-01 -6.171976387174E-01 0 1.055004360590E-02 0 0
TRAC 0 1 0 6.666666666667E-01 1.990917994142E-01 -7.430207107839E-01 0 1.055004360590E-02 0 0
TRAC 0 1 0 6.666666666667E-01 2.260434629846E-01 -8.436056885774E-01 0 9.125356426589E-03 0 0
TRAC 0 1 0 6.666666666667E-01 2.453098376775E-01 -9.155087778091E-01 0 6.468802075337E-03 0 0
TRAC 0 1 0 6.666666666667E-01 2.562367274561E-01 -9.562884856315E-01 0 2.944618758736E-03 0 0
TRAC 0 2 0 6.666666666667E-01 3.646968069988E-02 1.361067013078E-01 0 2.944618758736E-03 0 0
TRAC 0 2 0 6.666666666667E-01 8.252503648227E-02 3.079876290483E-01 0 6.468802075337E-03 0 0
TRAC 0 2 0 6.666666666667E-01 1.260620916442E-01 4.704701309245E-01 0 9.125356426589E-03 0 0
TRAC 0 2 0 6.666666666667E-01 1.653776088647E-01 6.171976387174E-01 0 1.055004360590E-02 0 0
TRAC 0 2 0 6.666666666667E-01 1.990917994142E-01 7.430207107839E-01 0 1.055004360590E-02 0 0
TRAC 0 2 0 6.666666666667E-01 2.260434629846E-01 8.436056885774E-01 0 9.125356426589E-03 0 0
TRAC 0 2 0 6.666666666667E-01 2.453098376775E-01 9.155087778091E-01 0 6.468802075337E-03 0 0
TRAC 0 2 0 6.666666666667E-01 2.562367274561E-01 9.562884856315E-01 0 2.944618758736E-03 0 0
TRAC 0 2 0 6.666666666667E-01 9.963702060788E-02 9.963702060788E-02 0 2.944618758736E-03 0 0
TRAC 0 2 0 6.666666666667E-01 2.254625925660E-01 2.254625925660E-01 0 6.468802075337E-03 0 0
TRAC 0 2 0 6.666666666667E-01 3.444080392830E-01 3.444080392830E-01 0 9.125356426589E-03 0 0
TRAC 0 2 0 6.666666666667E-01 4.518200298527E-01 4.518200298527E-01 0 1.055004360590E-02 0 0
TRAC 0 2 0 6.666666666667E-01 5.439289113698E-01 5.439289113698E-01 0 1.055004360590E-02 0 0
TRAC 0 2 0 6.666666666667E-01 6.175622255928E-01 6.175622255928E-01 0 9.125356426589E-03 0 0
TRAC 0 2 0 6.666666666667E-01 6.701989401315E-01 6.701989401315E-01 0 6.468802075337E-03 0 0
TRAC 0 2 0 6.666666666667E-01 7.000517581753E-01 7.000517581753E-01 0 2.944618758736E-03 0 0
TRAC 0 2 0 6.666666666667E-01 1.361067013078E-01 3.646968069988E-02 0 2.944618758736E-03 0 0
TRAC 0 2 0 6.666666666667E-01 3.079876290483E-01 8.252503648227E-02 0 6.468802075337E-03 0 0
TRAC 0 2 0 6.666666666667E-01 4.704701309245E-01 1.260620916442E-01 0 9.125356426589E-03 0 0
TRAC 0 2 0 6.666666666667E-01 6.171976387174E-01 1.653776088647E-01 0 1.055004360590E-02 0 0
TRAC 0 2 0 6.666666666667E-01 7.430207107839E-01 1.990917994142E-01 0 1.055004360590E-02 0 0
TRAC 0 2 0 6.666666666667E-01 8.436056885774E-01 2.260434629846E-01 0 9.125356426589E-03 0 0
TRAC 0 2 0 6.666666666667E-01 9.155087778091E-01 2.453098376775E-01 0 6.468802075337E-03 0 0
TRAC 0 2 0 6.666666666667E-01 9.562884856315E-01 2.562367274561E-01 0 2.944618758736E-03 0 0
TRAC 0 2 0 6.666666666667E-01 1.361067013078E-01 -3.646968069988E-02 0 2.944618758736E-03 0 0
TRAC 0 2 0 6.666666666667E-01 3.079876290483E-01 -8.252503648227E-02 0 6.468802075337E-03 0 0
TRAC 0 2 0 6.666666666667E-01 4.704701309245E-01 -1.260620916442E-01 0 9.125356426589E-03 0 0
TRAC 0 2 0 6.666666666667E-01 6.171976387174E-01 -1.653776088647E-01 0 1.055004360590E-02 0 0
TRAC 0 2 0 6.666666666667E-01 7.430207107839E-01 -1.990917994142E-01 0 1.055004360590E-02 0 0
TRAC 0 2 0 6.666666666667E-01 8.436056885774E-01 -2.260434629846E-01 0 9.125356426589E-03 0 0
TRAC 0 2 0 6.666666666667E-01 9.155087778091E-01 -2.453098376775E-01 0 6.468802075337E-03 0 0
TRAC 0 2 0 6.666666666667E-01 9.562884856315E-01 -2.562367274561E-01 0 2.944618758736E-03 0 0
TRAC 0 2 0 6.666666666667E-01 9.963702060788E-02 -9.963702060788E-02 0 2.944618758736E-03 0 0
TRAC 0 2 0 6.666666666667E-01 2.254625925660E-01 -2.254625925660E-01 0 6.468802075337E-03 0 0
TRAC 0 2 0 6.666666666667E-01 3.444080392830E-01 -3.444080392830E-01 0 9.125356426589E-03 0 0
TRAC 0 2 0 6.666666666667E-01 4.518200298527E-01 -4.518200298527E-01 0 1.055004360590E-02 0 0
TRAC 0 2 0 6.666666666667E-01 5.439289113698E-01 -5.439289113698E-01 0 1.055004360590E-02 0 0
TRAC 0 2 0 6.666666666667E-01 6.175622255928E-01 -6.175622255928E-01 0 9.125356426589E-03 0 0
TRAC 0 2 0 6.666666666667E-01 6.701989401315E-01 -6.701989401315E-01 0 6.468802075337E-03 0 0
TRAC 0 2 0 6.666666666667E-01 7.000517581753E-01 -7.000517581753E-01 0 2.944618758736E-03 0 0
TRAC 0 2 0 6.666666666667E-01 3.646968069988E-02 -1.361067013078E-01 0 2.944618758736E-03 0 0
TRAC 0 2 0 6.666666666667E-01 8.252503648227E-02 -3.079876290483E-01 0 6.468802075337E-03 0 0
TRAC 0 2 0 6.666666666667E-01 1.260620916442E-01 -4.704701309245E-01 0 9.125356426589E-03 0 0
TRAC 0 2 0 6.666666666667E-01 1.653776088647E-01 -6.171976387174E-01 0 1.055004360590E-02 0 0
TRAC 0 2 0 6.666666666667E-01 1.990917994142E-01 -7.430207107839E-01 0 1.055004360590E-02 0 0
TRAC 0 2 0 6.666666666667E-01 2.260434629846E-01 -8.436056885774E-01 0 9.125356426589E-03 0 0
TRAC 0 2 0 6.666666666667E-01 2.453098376775E-01 -9.155087778091E-01 0 6.468802075337E-03 0 0
TRAC 0 2 0 6.666666666667E-01 2.562367274561E-01 -9.562884856315E-01 0 2.944618758736E-03 0 0
TRAC 0 3 0 6.666666666667E-01 3.646968069988E-02 1.361067013078E-01 0 2.944618758736E-03 0 0
TRAC 0 3 0 6.666666666667E-01 8.252503648227E-02 3.079876290483E-01 0 6.468802075337E-03 0 0
TRAC 0 3 0 6.666666666667E-01 1.260620916442E-01 4.704701309245E-01 0 9.125356426589E-03 0 0
TRAC 0 3 0 6.666666666667E-01 1.653776088647E-01 6.171976387174E-01 0 1.055004360590E-02 0 0
TRAC 0 3 0 6.666666666667E-01 1.990917994142E-01 7.430207107839E-01 0 1.055004360590E-02 0 0
TRAC 0 3 0 6.666666666667E-01 2.260434629846E-01 8.436056885774E-01 0 9.125356426589E-03 0 0
TRAC 0 3 0 6.666666666667E-01 2.453098376775E-01 9.155087778091E-01 0 6.468802075337E-03 0 0
TRAC 0 3 0 6.666666666667E-01 2.562367274561E-01 9.562884856315E-01 0 2.944618758736E-03 0 0
TRAC 0 3 0 6.666666666667E-01 9.963702060788E-02 9.963702060788E-02 0 2.944618758736E-03 0 0
TRAC 0 3 0 6.666666666667E-01 2.254625925660E-01 2.254625925660E-01 0 6.468802075337E-03 0 0
TRAC 0 3 0 6.666666666667E-01 3.444080392830E-01 3.444080392830E-01 0 9.125356426589E-03 0 0
TRAC 0 3 0 6.666666666667E-01 4.518200298527E-01 4.518200298527E-01 0 1.055004360590E-02 0 0
TRAC 0 3 0 6.666666666667E-01 5.439289113698E-01 5.439289113698E-01 0 1.055004360590E-02 0 0
TRAC 0 3 0 6.666666666667E-01 6.175622255928E-01 6.175622255928E-01 0 9.125356426589E-03 0 0
TRAC 0 3 0 6.666666666667E-01 6.701989401315E-01 6.701989401315E-01 0 6.468802075337E-03 0 0
TRAC 0 3 0 6.666666666667E-01 7.000517581753E-01 7.000517581753E-01 0 2.944618758736E-03 0 0
TRAC 0 3 0 6.666666666667E-01 1.361067013078E-01 3.646968069988E-02 0 2.944618758736E-03 0 0
TRAC 0 3 0 6.666666666667E-01 3.079876290483E-01 8.252503648227E-02 0 6.468802075337E-03 0 0
TRAC 0 3 0 6.666666666667E-01 4.704701309245E-01 1.260620916442E-01 0 9.125356426589E-03 0 0
TRAC 0 3 0 6.666666666667E-01 6.171976387174E-01 1.653776088647E-01 0 1.055004360590E-02 0 0
TRAC 0 3 0 6.666666666667E-01 7.430207107839E-01 1.990917994142E-01 0 1.055004360590E-02 0 0
TRAC 0 3 0 6.666666666667E-01 8.436056885774E-01 2.260434629846E-01 0 9.125356426589E-03 0 0
TRAC 0 3 0 6.666666666667E-01 9.155087778091E-01 2.453098376775E-01 0 6.468802075337E-03 0 0
TRAC 0 3 0 6.666666666667E-01 9.562884856315E-01 2.562367274561E-01 0 2.944618758736E-03 0 0
TRAC 0 3 0 6.666666666667E-01 1.361067013078E-01 -3.646968069988E-02 0 2.944618758736E-03 0 0
TRAC 0 3 0 6.666666666667E-01 3.079876290483E-01 -8.252503648227E-02 0 6.468802075337E-03 0 0
TRAC 0 3 0 6.666666666667E-01 4.704701309245E-01 -1.260620916442E-01 0 9.125356426589E-03 0 0
TRAC 0 3 0 6.666666666667E-01 6.171976387174E-01 -1.653776088647E-01 0 1.055004360590E-02 0 0
TRAC 0 3 0 6.666666666667E-01 7.430207107839E-01 -1.990917994142E-01 0 1.055004360590E-02 0 0
TRAC 0 3 0 6.666666666667E-01 8.436056885774E-01 -2.260434629846E-01 0 9.125356426589E-03 0 0
TRAC 0 3 0 6.666666666667E-01 9.155087778091E-01 -2.453098376775E-01 0 6.468802075337E-03 0 0
TRAC 0 3 0 6.666666666667E-01 9.562884856315E-01 -2.562367274561E-01 0 2.944618758736E-03 0 0
TRAC 0 3 0 6.666666666667E-01 9.963702060788E-02 -9.963702060788E-02 0 2.944618758736E-03 0 0
TRAC 0 3 0 6.666666666667E-01 2.254625925660E-01 -2.254625925660E-01 0 6.468802075337E-03 0 0
TRAC 0 3 0 6.666666666667E-01 3.444080392830E-01 -3.444080392830E-01 0 9.125356426589E-03 0 0
TRAC 0 3 0 6.666666666667E-01 4.518200298527E-01 -4.518200298527E-01 0 1.055004360590E-02 0 0
TRAC 0 3 0 6.666666666667E-01 5.439289113698E-01 -5.439289113698E-01 0 1.055004360590E-02 0 0
TRAC 0 3 0 6.666666666667E-01 6.175622255928E-01 -6.175622255928E-01 0 9.125356426589E-03 0 0
TRAC 0 3 0 6.666666666667E-01 6.701989401315E-01 -6.701989401315E-01 0 6.468802075337E-03 0 0
TRAC 0 3 0 6.666666666667E-01 7.000517581753E-01 -7.000517581753E-01 0 2.944618758736E-03 0 0
TRAC 0 3 0 6.666666666667E-01 3.646968069988E-02 -1.361067013078E-01 0 2.944618758736E-03 0 0
TRAC 0 3 0 6.666666666667E-01 8.252503648227E-02 -3.079876290483E-01 0 6.468802075337E-03 0 0
TRAC 0 3 0 6.666666666667E-01 1.260620916442E-01 -4.704701309245E-01 0 9.125356426589E-03 0 0
TRAC 0 3 0 6.666666666667E-01 1.653776088647E-01 -6.171976387174E-01 0 1.055004360590E-02 0 0
TRAC 0 3 0 6.666666666667E-01 1.990917994142E-01 -7.430207107839E-01 0 1.055004360590E-02 0 0
TRAC 0 3 0 6.666666666667E-01 2.260434629846E-01 -8.436056885774E-01 0 9.125356426589E-03 0 0
TRAC 0 3 0 6.666666666667E-01 2.453098376775E-01 -9.155087778091E-01 0 6.468802075337E-03 0 0
TRAC 0 3 0 6.666666666667E-01 2.562367274561E-01 -9.562884856315E-01 0 2.944618758736E-03 0 0
BLNK Operands for field 3.
TRAC 0 1 0 1 3.646968069988E-02 1.361067013078E-01 0 2.944618758736E-03 0 0
TRAC 0 1 0 1 8.252503648227E-02 3.079876290483E-01 0 6.468802075337E-03 0 0
TRAC 0 1 0 1 1.260620916442E-01 4.704701309245E-01 0 9.125356426589E-03 0 0
TRAC 0 1 0 1 1.653776088647E-01 6.171976387174E-01 0 1.055004360590E-02 0 0
TRAC 0 1 0 1 1.990917994142E-01 7.430207107839E-01 0 1.055004360590E-02 0 0
TRAC 0 1 0 1 2.260434629846E-01 8.436056885774E-01 0 9.125356426589E-03 0 0
TRAC 0 1 0 1 2.453098376775E-01 9.155087778091E-01 0 6.468802075337E-03 0 0
TRAC 0 1 0 1 2.562367274561E-01 9.562884856315E-01 0 2.944618758736E-03 0 0
TRAC 0 1 0 1 9.963702060788E-02 9.963702060788E-02 0 2.944618758736E-03 0 0
TRAC 0 1 0 1 2.254625925660E-01 2.254625925660E-01 0 6.468802075337E-03 0 0
TRAC 0 1 0 1 3.444080392830E-01 3.444080392830E-01 0 9.125356426589E-03 0 0
TRAC 0 1 0 1 4.518200298527E-01 4.518200298527E-01 0 1.055004360590E-02 0 0
TRAC 0 1 0 1 5.439289113698E-01 5.439289113698E-01 0 1.055004360590E-02 0 0
TRAC 0 1 0 1 6.175622255928E-01 6.175622255928E-01 0 9.125356426589E-03 0 0
TRAC 0 1 0 1 6.701989401315E-01 6.701989401315E-01 0 6.468802075337E-03 0 0
TRAC 0 1 0 1 7.000517581753E-01 7.000517581753E-01 0 2.944618758736E-03 0 0
TRAC 0 1 0 1 1.361067013078E-01 3.646968069988E-02 0 2.944618758736E-03 0 0
TRAC 0 1 0 1 3.079876290483E-01 8.252503648227E-02 0 6.468802075337E-03 0 0
TRAC 0 1 0 1 4.704701309245E-01 1.260620916442E-01 0 9.125356426589E-03 0 0
TRAC 0 1 0 1 6.171976387174E-01 1.653776088647E-01 0 1.055004360590E-02 0 0
TRAC 0 1 0 1 7.430207107839E-01 1.990917994142E-01 0 1.055004360590E-02 0 0
TRAC 0 1 0 1 8.436056885774E-01 2.260434629846E-01 0 9.125356426589E-03 0 0
TRAC 0 1 0 1 9.155087778091E-01 2.453098376775E-01 0 6.468802075337E-03 0 0
TRAC 0 1 0 1 9.562884856315E-01 2.562367274561E-01 0 2.944618758736E-03 0 0
TRAC 0 1 0 1 1.361067013078E-01 -3.646968069988E-02 0 2.944618758736E-03 0 0
TRAC 0 1 0 1 3.079876290483E-01 -8.252503648227E-02 0 6.468802075337E-03 0 0
TRAC 0 1 0 1 4.704701309245E-01 -1.260620916442E-01 0 9.125356426589E-03 0 0
TRAC 0 1 0 1 6.171976387174E-01 -1.653776088647E-01 0 1.055004360590E-02 0 0
TRAC 0 1 0 1 7.430207107839E-01 -1.990917994142E-01 0 1.055004360590E-02 0 0
TRAC 0 1 0 1 8.436056885774E-01 -2.260434629846E-01 0 9.125356426589E-03 0 0
TRAC 0 1 0 1 9.155087778091E-01 -2.453098376775E-01 0 6.468802075337E-03 0 0
TRAC 0 1 0 1 9.562884856315E-01 -2.562367274561E-01 0 2.944618758736E-03 0 0
TRAC 0 1 0 1 9.963702060788E-02 -9.963702060788E-02 0 2.944618758736E-03 0 0
TRAC 0 1 0 1 2.254625925660E-01 -2.254625925660E-01 0 6.468802075337E-03 0 0
TRAC 0 1 0 1 3.444080392830E-01 -3.444080392830E-01 0 9.125356426589E-03 0 0
TRAC 0 1 0 1 4.518200298527E-01 -4.518200298527E-01 0 1.055004360590E-02 0 0
TRAC 0 1 0 1 5.439289113698E-01 -5.439289113698E-01 0 1.055004360590E-02 0 0
TRAC 0 1 0 1 6.175622255928E-01 -6.175622255928E-01 0 9.125356426589E-03 0 0
TRAC 0 1 0 1 6.701989401315E-01 -6.701989401315E-01 0 6.468802075337E-03 0 0
TRAC 0 1 0 1 7.000517581753E-01 -7.000517581753E-01 0 2.944618758736E-03 0 0
TRAC 0 1 0 1 3.646968069988E-02 -1.361067013078E-01 0 2.944618758736E-03 0 0
TRAC 0 1 0 1 8.252503648227E-02 -3.079876290483E-01 0 6.468802075337E-03 0 0
TRAC 0 1 0 1 1.260620916442E-01 -4.704701309245E-01 0 9.125356426589E-03 0 0
TRAC 0 1 0 1 1.653776088647E-01 -6.171976387174E-01 0 1.055004360590E-02 0 0
TRAC 0 1 0 1 1.990917994142E-01 -7.430207107839E-01 0 1.055004360590E-02 0 0
TRAC 0 1 0 1 2.260434629846E-01 -8.436056885774E-01 0 9.125356426589E-03 0 0
TRAC 0 1 0 1 2.453098376775E-01 -9.155087778091E-01 0 6.468802075337E-03 0 0
TRAC 0 1 0 1 2.562367274561E-01 -9.562884856315E-01 0 2.944618758736E-03 0 0
TRAC 0 2 0 1 3.646968069988E-02 1.361067013078E-01 0 2.944618758736E-03 0 0
TRAC 0 2 0 1 8.252503648227E-02 3.079876290483E-01 0 6.468802075337E-03 0 0
TRAC 0 2 0 1 1.260620916442E-01 4.704701309245E-01 0 9.125356426589E-03 0 0
TRAC 0 2 0 1 1.653776088647E-01 6.171976387174E-01 0 1.055004360590E-02 0 0
TRAC 0 2 0 1 1.990917994142E-01 7.430207107839E-01 0 1.055004360590E-02 0 0
TRAC 0 2 0 1 2.260434629846E-01 8.436056885774E-01 0 9.125356426589E-03 0 0
TRAC 0 2 0 1 2.453098376775E-01 9.155087778091E-01 0 6.468802075337E-03 0 0
TRAC 0 2 0 1 2.562367274561E-01 9.562884856315E-01 0 2.944618758736E-03 0 0
TRAC 0 2 0 1 9.963702060788E-02 9.963702060788E-02 0 2.944618758736E-03 0 0
TRAC 0 2 0 1 2.254625925660E-01 2.254625925660E-01 0 6.468802075337E-03 0 0
TRAC 0 2 0 1 3.444080392830E-01 3.444080392830E-01 0 9.125356426589E-03 0 0
TRAC 0 2 0 1 4.518200298527E-01 4.518200298527E-01 0 1.055004360590E-02 0 0
TRAC 0 2 0 1 5.439289113698E-01 5.439289113698E-01 0 1.055004360590E-02 0 0
TRAC 0 2 0 1 6.175622255928E-01 6.175622255928E-01 0 9.125356426589E-03 0 0
TRAC 0 2 0 1 6.701989401315E-01 6.701989401315E-01 0 6.468802075337E-03 0 0
TRAC 0 2 0 1 7.000517581753E-01 7.000517581753E-01 0 2.944618758736E-03 0 0
TRAC 0 2 0 1 1.361067013078E-01 3.646968069988E-02 0 2.944618758736E-03 0 0
TRAC 0 2 0 1 3.079876290483E-01 8.252503648227E-02 0 6.468802075337E-03 0 0
TRAC 0 2 0 1 4.704701309245E-01 1.260620916442E-01 0 9.125356426589E-03 0 0
TRAC 0 2 0 1 6.171976387174E-01 1.653776088647E-01 0 1.055004360590E-02 0 0
TRAC 0 2 0 1 7.430207107839E-01 1.990917994142E-01 0 1.055004360590E-02 0 0
TRAC 0 2 0 1 8.436056885774E-01 2.260434629846E-01 0 9.125356426589E-03 0 0
TRAC 0 2 0 1 9.155087778091E-01 2.453098376775E-01 0 6.468802075337E-03 0 0
TRAC 0 2 0 1 9.562884856315E-01 2.562367274561E-01 0 2.944618758736E-03 0 0
TRAC 0 2 0 1 1.361067013078E-01 -3.646968069988E-02 0 2.944618758736E-03 0 0
TRAC 0 2 0 1 3.079876290483E-01 -8.252503648227E-02 0 6.468802075337E-03 0 0
TRAC 0 2 0 1 4.704701309245E-01 -1.260620916442E-01 0 9.125356426589E-03 0 0
TRAC 0 2 0 1 6.171976387174E-01 -1.653776088647E-01 0 1.055004360590E-02 0 0
TRAC 0 2 0 1 7.430207107839E-01 -1.990917994142E-01 0 1.055004360590E-02 0 0
TRAC 0 2 0 1 8.436056885774E-01 -2.260434629846E-01 0 9.125356426589E-03 0 0
TRAC 0 2 0 1 9.155087778091E-01 -2.453098376775E-01 0 6.468802075337E-03 0 0
TRAC 0 2 0 1 9.562884856315E-01 -2.562367274561E-01 0 2.944618758736E-03 0 0
TRAC 0 2 0 1 9.963702060788E-02 -9.963702060788E-02 0 2.944618758736E-03 0 0
TRAC 0 2 0 1 2.254625925660E-01 -2.254625925660E-01 0 6.468802075337E-03 0 0
TRAC 0 2 0 1 3.444080392830E-01 -3.444080392830E-01 0 9.125356426589E-03 0 0
TRAC 0 2 0 1 4.518200298527E-01 -4.518200298527E-01 0 1.055004360590E-02 0 0
TRAC 0 2 0 1 5.439289113698E-01 -5.439289113698E-01 0 1.055004360590E-02 0 0
TRAC 0 2 0 1 6.175622255928E-01 -6.175622255928E-01 0 9.125356426589E-03 0 0
TRAC 0 2 0 1 6.701989401315E-01 -6.701989401315E-01 0 6.468802075337E-03 0 0
TRAC 0 2 0 1 7.000517581753E-01 -7.000517581753E-01 0 2.944618758736E-03 0 0
TRAC 0 2 0 1 3.646968069988E-02 -1.361067013078E-01 0 2.944618758736E-03 0 0
TRAC 0 2 0 1 8.252503648227E-02 -3.079876290483E-01 0 6.468802075337E-03 0 0
TRAC 0 2 0 1 1.260620916442E-01 -4.704701309245E-01 0 9.125356426589E-03 0 0
TRAC 0 2 0 1 1.653776088647E-01 -6.171976387174E-01 0 1.055004360590E-02 0 0
TRAC 0 2 0 1 1.990917994142E-01 -7.430207107839E-01 0 1.055004360590E-02 0 0
TRAC 0 2 0 1 2.260434629846E-01 -8.436056885774E-01 0 9.125356426589E-03 0 0
TRAC 0 2 0 1 2.453098376775E-01 -9.155087778091E-01 0 6.468802075337E-03 0 0
TRAC 0 2 0 1 2.562367274561E-01 -9.562884856315E-01 0 2.944618758736E-03 0 0
TRAC 0 3 0 1 3.646968069988E-02 1.361067013078E-01 0 2.944618758736E-03 0 0
TRAC 0 3 0 1 8.252503648227E-02 3.079876290483E-01 0 6.468802075337E-03 0 0