VERS 160720 177 100027
MODE SEQ
NAME Ai Nikkor 35mm F1.4S
NOTE 0 according to http://nikkor.com/story/0027/
PFIL 0 0 0
LANG 0
UNIT MM X W X CM MR CPMM
FNUM 1.80E+00 0
ENVD 2.00E+01 1 0
GFAC 0 0
GCAT OHARA-CALDWELL2 
RAIM 0 2 1 1 0 1 0 0 0 1
PUSH 1.862937152022E+01 0 0 0 0 0
SDMA 0 1 0
OMMA 1 1
FTYP 3 0 3 3 0 0 0
ROPD 2
PICB 1
XFLN 0 0 0 0 0 0 0 0 0 0 0 0
YFLN 0 1.40E+01 2.10E+01 0 0 0 0 0 0 0 0 0
FWGN 1 1 1 1 1 1 1 1 1 1 1 1
VDXN 0 0 0 0 0 0 0 0 0 0 0 0
VDYN 0 0 0 0 0 0 0 0 0 0 0 0
VCXN 0 0 0 0 0 0 0 0 0 0 0 0
VCYN 0 0 0 0 0 0 0 0 0 0 0 0
VANN 0 0 0 0 0 0 0 0 0 0 0 0
WAVM 1 4.8613270E-01 1
WAVM 2 5.8756180E-01 1
WAVM 3 6.5627250E-01 1
WAVM 4 5.50E-01 1
WAVM 5 5.50E-01 1
WAVM 6 5.50E-01 1
WAVM 7 5.50E-01 1
WAVM 8 5.50E-01 1
WAVM 9 5.50E-01 1
WAVM 10 5.50E-01 1
WAVM 11 5.50E-01 1
WAVM 12 5.50E-01 1
WAVM 13 5.50E-01 1
WAVM 14 5.50E-01 1
WAVM 15 5.50E-01 1
WAVM 16 5.50E-01 1
WAVM 17 5.50E-01 1
WAVM 18 5.50E-01 1
WAVM 19 5.50E-01 1
WAVM 20 5.50E-01 1
WAVM 21 5.50E-01 1
WAVM 22 5.50E-01 1
WAVM 23 5.50E-01 1
WAVM 24 5.50E-01 1
PWAV 2
POLS 1 0 1 0 0 1 0
GLRS 9 0
GSTD 0 100.000 100.000 100.000 100.000 100.000 100.000 0 1 1 0 0 1 1 1 1 1 1
NSCD 100 500 0 1.00E-03 5 1.00E-06 0 0 0 0 0 0 1000000 0 2
COFN QF "COATING.DAT" "SCATTER_PROFILE.DAT" "ABG_DATA.DAT" "PROFILE.GRD"
COFN COATING.DAT SCATTER_PROFILE.DAT ABG_DATA.DAT PROFILE.GRD
SURF 0
  TYPE STANDARD
  FIMP 

  CURV 0.0 0 0 0 0 ""
  HIDE 0 0 0 0 0 0 0 0 0 0
  MIRR 2 0
  SLAB 1
  DISZ INFINITY
  DIAM 0 0 0 0 1 ""
  MEMA 0 0 0 0 1 ""
  POPS 0 0 0 0 0 0 0 0 1 1 1 1 0 0 0 0
SURF 1
  TYPE STANDARD
  FIMP 

  CURV 2.072479389024216995E-02 0 0 0 0 ""
  HIDE 0 0 0 0 0 0 0 0 0 0
  MIRR 2 0
  SLAB 2
  DISZ 1.494883635416E+00
  GLAS S-BAL42 3 0 1.516329924761E+00 6.414202197113E+01 -2.40E-03 0 0 0 0 0 
  DIAM 2.150340337236E+01 1 0 0 1 ""
  MEMA 2.150340337236E+01 0 0 0 1 ""
  POPS 0 0 0 0 0 0 0 0 1 1 1 1 0 0 0 0
  FLAP 0 2.150340337236E+01 0
SURF 2
  TYPE STANDARD
  FIMP 

  CURV 3.982386977552529461E-02 0 0 0 0 ""
  HIDE 0 0 0 0 0 0 0 0 0 0
  MIRR 2 0
  SLAB 2
  DISZ 4.756333035835E+00
  DIAM 1.796093518674E+01 1 0 0 1 ""
  MEMA 2.150340337236E+01 0 0 0 1 ""
  POPS 0 0 0 0 0 0 0 0 1 1 1 1 0 0 0 0
  FLAP 0 1.796093518674E+01 0
SURF 3
  TYPE STANDARD
  FIMP 

  CURV 2.048712680261886160E-02 0 0 0 0 ""
  HIDE 0 0 0 0 0 0 0 0 0 0
  MIRR 2 0
  SLAB 2
  DISZ 1.480498408976E+00
  GLAS N-LASF9 3 0 1.516329924761E+00 6.414202197113E+01 -2.40E-03 0 0 0 0 0 
  DIAM 1.947321692680E+01 1 0 0 1 ""
  MEMA 1.947321692680E+01 0 0 0 1 ""
  POPS 0 0 0 0 0 0 0 0 1 1 1 1 0 0 0 0
  FLAP 0 1.947321692680E+01 0
SURF 4
  TYPE STANDARD
  FIMP 

  CURV 3.878589350052952939E-02 0 0 0 0 ""
  HIDE 0 0 0 0 0 0 0 0 0 0
  MIRR 2 0
  SLAB 2
  DISZ 1.026807149322E+01
  DIAM 1.655223438778E+01 1 0 0 1 ""
  MEMA 1.947321692680E+01 0 0 0 1 ""
  POPS 0 0 0 0 0 0 0 0 1 1 1 1 0 0 0 0
  FLAP 0 1.655223438778E+01 0
SURF 5
  TYPE STANDARD
  FIMP 

  CURV 2.670763026989879385E-02 0 0 0 0 ""
  HIDE 0 0 0 0 0 0 0 0 0 0
  MIRR 2 0
  SLAB 2
  DISZ 8.881093113636E+00
  GLAS S-LAM61 3 0 1.516329924761E+00 6.414202197113E+01 -2.40E-03 0 0 0 0 0 
  DIAM 1.719443622260E+01 1 0 0 1 ""
  MEMA 1.719443622260E+01 0 0 0 1 ""
  POPS 0 0 0 0 0 0 0 0 1 1 1 1 0 0 0 0
  FLAP 0 1.719443622260E+01 0
SURF 6
  TYPE STANDARD
  FIMP 

  CURV -2.468272701059923135E-02 0 0 0 0 ""
  HIDE 0 0 0 0 0 0 0 0 0 0
  MIRR 2 0
  SLAB 2
  DISZ 1.336536926556E+01
  GLAS S-FPL53 3 0 1.487489934771E+00 7.023625207231E+01 2.20E-03 0 0 0 0 0 
  DIAM 1.719443622260E+01 1 0 0 1 ""
  MEMA 1.719443622260E+01 0 0 0 1 ""
  POPS 0 0 0 0 0 0 0 0 1 1 1 1 0 0 0 0
  FLAP 0 1.719443622260E+01 0
SURF 7
  TYPE STANDARD
  FIMP 

  CURV 4.054585992575670400E-03 0 0 0 0 ""
  HIDE 0 0 0 0 0 0 0 0 0 0
  MIRR 2 0
  SLAB 2
  DISZ 2.570502306845E+00
  DIAM 1.443918318934E+01 1 0 0 1 ""
  MEMA 1.719443622260E+01 0 0 0 1 ""
  POPS 0 0 0 0 0 0 0 0 1 1 1 1 0 0 0 0
  FLAP 0 1.443918318934E+01 0
SURF 8
  STOP
  TYPE STANDARD
  FIMP 

  CURV 0.0 0 0 0 0 ""
  HIDE 0 0 0 0 0 0 0 0 0 0
  MIRR 2 0
  SLAB 2
  DISZ 7.314712637369E+00
  DIAM 1.2566111196E+01 0 0 0 1 ""
  MEMA 1.2566111196E+01 0 0 0 1 ""
  POPS 0 0 0 0 0 0 0 0 1 1 1 1 0 0 0 0
SURF 9
  TYPE STANDARD
  FIMP 

  CURV -4.157770444317591269E-02 0 0 0 0 ""
  HIDE 0 0 0 0 0 0 0 0 0 0
  MIRR 2 0
  SLAB 2
  DISZ 3.824184033619E+00
  GLAS S-LAH65V 3 0 1.487489934771E+00 7.023625207231E+01 2.20E-03 0 0 0 0 0 
  DIAM 1.32790766492E+01 1 0 0 1 ""
  MEMA 1.41284403664E+01 0 0 0 1 ""
  POPS 0 0 0 0 0 0 0 0 1 1 1 1 0 0 0 0
  FLAP 0 1.32790766492E+01 0
SURF 10
  TYPE STANDARD
  FIMP 

  CURV -5.655932677481129850E-02 0 0 0 0 ""
  HIDE 0 0 0 0 0 0 0 0 0 0
  MIRR 2 0
  SLAB 2
  DISZ 8.327084492113E-01
  GLAS S-TIM28 3 0 1.516329924761E+00 6.414202197113E+01 -2.40E-03 0 0 0 0 0 
  DIAM 1.371411660164E+01 1 0 0 1 ""
  MEMA 1.41284403664E+01 0 0 0 1 ""
  POPS 0 0 0 0 0 0 0 0 1 1 1 1 0 0 0 0
  FLAP 0 1.371411660164E+01 0
SURF 11
  TYPE STANDARD
  FIMP 

  CURV 4.609262848978039166E-03 0 0 0 0 ""
  HIDE 0 0 0 0 0 0 0 0 0 0
  MIRR 2 0
  SLAB 2
  DISZ 1.77851673838E+00
  DIAM 1.41284403664E+01 1 0 0 1 ""
  MEMA 1.41284403664E+01 0 0 0 1 ""
  POPS 0 0 0 0 0 0 0 0 1 1 1 1 0 0 0 0
  FLAP 0 1.41284403664E+01 0
SURF 12
  TYPE STANDARD
  FIMP 

  CURV -1.041421192645285154E-02 0 0 0 0 ""
  HIDE 0 0 0 0 0 0 0 0 0 0
  MIRR 2 0
  SLAB 2
  DISZ 4.065839468257E+00
  GLAS S-PHM53 3 0 1.516329924761E+00 6.414202197113E+01 -2.40E-03 0 0 0 0 0 
  DIAM 1.41284403664E+01 1 0 0 1 ""
  MEMA 1.514353358882E+01 0 0 0 1 ""
  POPS 0 0 0 0 0 0 0 0 1 1 1 1 0 0 0 0
  FLAP 0 1.41284403664E+01 0
SURF 13
  TYPE STANDARD
  FIMP 

  CURV -3.537386120031328629E-02 0 0 0 0 ""
  HIDE 0 0 0 0 0 0 0 0 0 0
  MIRR 2 0
  SLAB 2
  DISZ 1.449504278275E-01
  DIAM 1.514353358882E+01 1 0 0 1 ""
  MEMA 1.514353358882E+01 0 0 0 1 ""
  POPS 0 0 0 0 0 0 0 0 1 1 1 1 0 0 0 0
  FLAP 0 1.514353358882E+01 0
SURF 14
  TYPE STANDARD
  FIMP 

  CURV 1.592001543698626492E-03 0 0 0 0 ""
  HIDE 0 0 0 0 0 0 0 0 0 0
  MIRR 2 0
  SLAB 2
  DISZ 3.27135609724E+00
  GLAS S-LAL8 3 0 1.516329924761E+00 6.414202197113E+01 -2.40E-03 0 0 0 0 0 
  DIAM 1.584788398830E+01 1 0 0 1 ""
  MEMA 1.584788398830E+01 0 0 0 1 ""
  POPS 0 0 0 0 0 0 0 0 1 1 1 1 0 0 0 0
  FLAP 0 1.584788398830E+01 0
SURF 15
  TYPE STANDARD
  FIMP 

  CURV -1.831342721665334128E-02 0 0 0 0 ""
  HIDE 0 0 0 0 0 0 0 0 0 0
  MIRR 2 0
  SLAB 2
  DISZ 1.447670031030E-01
  DIAM 1.584788398830E+01 1 0 0 1 ""
  MEMA 1.584788398830E+01 0 0 0 1 ""
  POPS 0 0 0 0 0 0 0 0 1 1 1 1 0 0 0 0
  FLAP 0 1.584788398830E+01 0
SURF 16
  TYPE STANDARD
  FIMP 

  CURV 9.750405772876832161E-03 0 0 0 0 ""
  HIDE 0 0 0 0 0 0 0 0 0 0
  MIRR 2 0
  SLAB 2
  DISZ 3.401010090325E+00
  GLAS S-LAH59 3 0 1.516329924761E+00 6.414202197113E+01 -2.40E-03 0 0 0 0 0 
  DIAM 1.663509914066E+01 1 0 0 1 ""
  MEMA 1.663509914066E+01 0 0 0 1 ""
  POPS 0 0 0 0 0 0 0 0 1 1 1 1 0 0 0 0
  FLAP 0 1.663509914066E+01 0
SURF 17
  TYPE STANDARD
  FIMP 

  CURV -4.159433816786997119E-03 0 0 0 0 ""
  HIDE 0 0 0 0 0 0 0 0 0 0
  MIRR 2 0
  SLAB 2
  DISZ 4.903920680777E+01
  MAZH 0 7.00E-01
  DIAM 1.663509914066E+01 1 0 0 1 ""
  MEMA 1.663509914066E+01 0 0 0 1 ""
  POPS 0 0 0 0 0 0 0 0 1 1 1 1 0 0 0 0
  FLAP 0 1.663509914066E+01 0
SURF 18
  TYPE STANDARD
  FIMP 

  CURV 0.0 0 0 0 0 ""
  HIDE 0 0 0 0 0 0 0 0 0 0
  MIRR 2 0
  SLAB 3
  DISZ 0
  DIAM 2.068571305574E+01 0 0 0 1 ""
  MEMA 2.068571305574E+01 0 0 0 1 ""
  POPS 0 0 0 0 0 0 0 0 1 1 1 1 0 0 0 0
DMFS 0 0 0 0 0 0 0 0 0 0
BLNK Sequential merit function: RMS spot radius centroid GQ 6 rings 10 arms
BLNK No air or glass constraints.
BLNK Operands for field 1.
TRAC 0 1 0 0 1.837532119440E-01 0 0 2.990176481324E-02 0 0
TRAC 0 1 0 0 4.115766110542E-01 0 0 6.296477264364E-02 0 0
TRAC 0 1 0 0 6.170011401597E-01 0 0 8.166638774255E-02 0 0
TRAC 0 1 0 0 7.869622564276E-01 0 0 8.166638774255E-02 0 0
TRAC 0 1 0 0 9.113751660173E-01 0 0 6.296477264364E-02 0 0
TRAC 0 1 0 0 9.829724091253E-01 0 0 2.990176481324E-02 0 0
TRAC 0 2 0 0 1.837532119440E-01 0 0 2.990176481324E-02 0 0
TRAC 0 2 0 0 4.115766110542E-01 0 0 6.296477264364E-02 0 0
TRAC 0 2 0 0 6.170011401597E-01 0 0 8.166638774255E-02 0 0
TRAC 0 2 0 0 7.869622564276E-01 0 0 8.166638774255E-02 0 0
TRAC 0 2 0 0 9.113751660173E-01 0 0 6.296477264364E-02 0 0
TRAC 0 2 0 0 9.829724091253E-01 0 0 2.990176481324E-02 0 0
TRAC 0 3 0 0 1.837532119440E-01 0 0 2.990176481324E-02 0 0
TRAC 0 3 0 0 4.115766110542E-01 0 0 6.296477264364E-02 0 0
TRAC 0 3 0 0 6.170011401597E-01 0 0 8.166638774255E-02 0 0
TRAC 0 3 0 0 7.869622564276E-01 0 0 8.166638774255E-02 0 0
TRAC 0 3 0 0 9.113751660173E-01 0 0 6.296477264364E-02 0 0
TRAC 0 3 0 0 9.829724091253E-01 0 0 2.990176481324E-02 0 0
BLNK Operands for field 2.
TRAC 0 1 0 6.666666666667E-01 5.678286526057E-02 1.747596896061E-01 0 5.980352962649E-03 0 0
TRAC 0 1 0 6.666666666667E-01 1.271841673030E-01 3.914326178978E-01 0 1.259295452873E-02 0 0
TRAC 0 1 0 6.666666666667E-01 1.906638378581E-01 5.868029549140E-01 0 1.633327754851E-02 0 0
TRAC 0 1 0 6.666666666667E-01 2.431847111678E-01 7.484455820538E-01 0 1.633327754851E-02 0 0
TRAC 0 1 0 6.666666666667E-01 2.816304145560E-01 8.667692904340E-01 0 1.259295452873E-02 0 0
TRAC 0 1 0 6.666666666667E-01 3.037551794214E-01 9.348623150370E-01 0 5.980352962649E-03 0 0
TRAC 0 1 0 6.666666666667E-01 1.486594712380E-01 1.08007428040E-01 0 5.980352962649E-03 0 0
TRAC 0 1 0 6.666666666667E-01 3.329724728310E-01 2.419186621662E-01 0 1.259295452873E-02 0 0
TRAC 0 1 0 6.666666666667E-01 4.991644079379E-01 3.626641708335E-01 0 1.633327754851E-02 0 0
TRAC 0 1 0 6.666666666667E-01 6.366658393816E-01 4.625648084389E-01 0 1.633327754851E-02 0 0
TRAC 0 1 0 6.666666666667E-01 7.373179975593E-01 5.356928818960E-01 0 1.259295452873E-02 0 0
TRAC 0 1 0 6.666666666667E-01 7.952413839840E-01 5.777766854942E-01 0 5.980352962649E-03 0 0
TRAC 0 1 0 6.666666666667E-01 1.837532119440E-01 0 0 5.980352962649E-03 0 0
TRAC 0 1 0 6.666666666667E-01 4.115766110542E-01 0 0 1.259295452873E-02 0 0
TRAC 0 1 0 6.666666666667E-01 6.170011401597E-01 0 0 1.633327754851E-02 0 0
TRAC 0 1 0 6.666666666667E-01 7.869622564276E-01 0 0 1.633327754851E-02 0 0
TRAC 0 1 0 6.666666666667E-01 9.113751660173E-01 0 0 1.259295452873E-02 0 0
TRAC 0 1 0 6.666666666667E-01 9.829724091253E-01 0 0 5.980352962649E-03 0 0
TRAC 0 1 0 6.666666666667E-01 1.486594712380E-01 -1.08007428040E-01 0 5.980352962649E-03 0 0
TRAC 0 1 0 6.666666666667E-01 3.329724728310E-01 -2.419186621662E-01 0 1.259295452873E-02 0 0
TRAC 0 1 0 6.666666666667E-01 4.991644079379E-01 -3.626641708335E-01 0 1.633327754851E-02 0 0
TRAC 0 1 0 6.666666666667E-01 6.366658393816E-01 -4.625648084389E-01 0 1.633327754851E-02 0 0
TRAC 0 1 0 6.666666666667E-01 7.373179975593E-01 -5.356928818960E-01 0 1.259295452873E-02 0 0
TRAC 0 1 0 6.666666666667E-01 7.952413839840E-01 -5.777766854942E-01 0 5.980352962649E-03 0 0
TRAC 0 1 0 6.666666666667E-01 5.678286526057E-02 -1.747596896061E-01 0 5.980352962649E-03 0 0
TRAC 0 1 0 6.666666666667E-01 1.271841673030E-01 -3.914326178978E-01 0 1.259295452873E-02 0 0
TRAC 0 1 0 6.666666666667E-01 1.906638378581E-01 -5.868029549140E-01 0 1.633327754851E-02 0 0
TRAC 0 1 0 6.666666666667E-01 2.431847111678E-01 -7.484455820538E-01 0 1.633327754851E-02 0 0
TRAC 0 1 0 6.666666666667E-01 2.816304145560E-01 -8.667692904340E-01 0 1.259295452873E-02 0 0
TRAC 0 1 0 6.666666666667E-01 3.037551794214E-01 -9.348623150370E-01 0 5.980352962649E-03 0 0
TRAC 0 2 0 6.666666666667E-01 5.678286526057E-02 1.747596896061E-01 0 5.980352962649E-03 0 0
TRAC 0 2 0 6.666666666667E-01 1.271841673030E-01 3.914326178978E-01 0 1.259295452873E-02 0 0
TRAC 0 2 0 6.666666666667E-01 1.906638378581E-01 5.868029549140E-01 0 1.633327754851E-02 0 0
TRAC 0 2 0 6.666666666667E-01 2.431847111678E-01 7.484455820538E-01 0 1.633327754851E-02 0 0
TRAC 0 2 0 6.666666666667E-01 2.816304145560E-01 8.667692904340E-01 0 1.259295452873E-02 0 0
TRAC 0 2 0 6.666666666667E-01 3.037551794214E-01 9.348623150370E-01 0 5.980352962649E-03 0 0
TRAC 0 2 0 6.666666666667E-01 1.486594712380E-01 1.08007428040E-01 0 5.980352962649E-03 0 0
TRAC 0 2 0 6.666666666667E-01 3.329724728310E-01 2.419186621662E-01 0 1.259295452873E-02 0 0
TRAC 0 2 0 6.666666666667E-01 4.991644079379E-01 3.626641708335E-01 0 1.633327754851E-02 0 0
TRAC 0 2 0 6.666666666667E-01 6.366658393816E-01 4.625648084389E-01 0 1.633327754851E-02 0 0
TRAC 0 2 0 6.666666666667E-01 7.373179975593E-01 5.356928818960E-01 0 1.259295452873E-02 0 0
TRAC 0 2 0 6.666666666667E-01 7.952413839840E-01 5.777766854942E-01 0 5.980352962649E-03 0 0
TRAC 0 2 0 6.666666666667E-01 1.837532119440E-01 0 0 5.980352962649E-03 0 0
TRAC 0 2 0 6.666666666667E-01 4.115766110542E-01 0 0 1.259295452873E-02 0 0
TRAC 0 2 0 6.666666666667E-01 6.170011401597E-01 0 0 1.633327754851E-02 0 0
TRAC 0 2 0 6.666666666667E-01 7.869622564276E-01 0 0 1.633327754851E-02 0 0
TRAC 0 2 0 6.666666666667E-01 9.113751660173E-01 0 0 1.259295452873E-02 0 0
TRAC 0 2 0 6.666666666667E-01 9.829724091253E-01 0 0 5.980352962649E-03 0 0
TRAC 0 2 0 6.666666666667E-01 1.486594712380E-01 -1.08007428040E-01 0 5.980352962649E-03 0 0
TRAC 0 2 0 6.666666666667E-01 3.329724728310E-01 -2.419186621662E-01 0 1.259295452873E-02 0 0
TRAC 0 2 0 6.666666666667E-01 4.991644079379E-01 -3.626641708335E-01 0 1.633327754851E-02 0 0
TRAC 0 2 0 6.666666666667E-01 6.366658393816E-01 -4.625648084389E-01 0 1.633327754851E-02 0 0
TRAC 0 2 0 6.666666666667E-01 7.373179975593E-01 -5.356928818960E-01 0 1.259295452873E-02 0 0
TRAC 0 2 0 6.666666666667E-01 7.952413839840E-01 -5.777766854942E-01 0 5.980352962649E-03 0 0
TRAC 0 2 0 6.666666666667E-01 5.678286526057E-02 -1.747596896061E-01 0 5.980352962649E-03 0 0
TRAC 0 2 0 6.666666666667E-01 1.271841673030E-01 -3.914326178978E-01 0 1.259295452873E-02 0 0
TRAC 0 2 0 6.666666666667E-01 1.906638378581E-01 -5.868029549140E-01 0 1.633327754851E-02 0 0
TRAC 0 2 0 6.666666666667E-01 2.431847111678E-01 -7.484455820538E-01 0 1.633327754851E-02 0 0
TRAC 0 2 0 6.666666666667E-01 2.816304145560E-01 -8.667692904340E-01 0 1.259295452873E-02 0 0
TRAC 0 2 0 6.666666666667E-01 3.037551794214E-01 -9.348623150370E-01 0 5.980352962649E-03 0 0
TRAC 0 3 0 6.666666666667E-01 5.678286526057E-02 1.747596896061E-01 0 5.980352962649E-03 0 0
TRAC 0 3 0 6.666666666667E-01 1.271841673030E-01 3.914326178978E-01 0 1.259295452873E-02 0 0
TRAC 0 3 0 6.666666666667E-01 1.906638378581E-01 5.868029549140E-01 0 1.633327754851E-02 0 0
TRAC 0 3 0 6.666666666667E-01 2.431847111678E-01 7.484455820538E-01 0 1.633327754851E-02 0 0
TRAC 0 3 0 6.666666666667E-01 2.816304145560E-01 8.667692904340E-01 0 1.259295452873E-02 0 0
TRAC 0 3 0 6.666666666667E-01 3.037551794214E-01 9.348623150370E-01 0 5.980352962649E-03 0 0
TRAC 0 3 0 6.666666666667E-01 1.486594712380E-01 1.08007428040E-01 0 5.980352962649E-03 0 0
TRAC 0 3 0 6.666666666667E-01 3.329724728310E-01 2.419186621662E-01 0 1.259295452873E-02 0 0
TRAC 0 3 0 6.666666666667E-01 4.991644079379E-01 3.626641708335E-01 0 1.633327754851E-02 0 0
TRAC 0 3 0 6.666666666667E-01 6.366658393816E-01 4.625648084389E-01 0 1.633327754851E-02 0 0
TRAC 0 3 0 6.666666666667E-01 7.373179975593E-01 5.356928818960E-01 0 1.259295452873E-02 0 0
TRAC 0 3 0 6.666666666667E-01 7.952413839840E-01 5.777766854942E-01 0 5.980352962649E-03 0 0
TRAC 0 3 0 6.666666666667E-01 1.837532119440E-01 0 0 5.980352962649E-03 0 0
TRAC 0 3 0 6.666666666667E-01 4.115766110542E-01 0 0 1.259295452873E-02 0 0
TRAC 0 3 0 6.666666666667E-01 6.170011401597E-01 0 0 1.633327754851E-02 0 0
TRAC 0 3 0 6.666666666667E-01 7.869622564276E-01 0 0 1.633327754851E-02 0 0
TRAC 0 3 0 6.666666666667E-01 9.113751660173E-01 0 0 1.259295452873E-02 0 0
TRAC 0 3 0 6.666666666667E-01 9.829724091253E-01 0 0 5.980352962649E-03 0 0
TRAC 0 3 0 6.666666666667E-01 1.486594712380E-01 -1.08007428040E-01 0 5.980352962649E-03 0 0
TRAC 0 3 0 6.666666666667E-01 3.329724728310E-01 -2.419186621662E-01 0 1.259295452873E-02 0 0
TRAC 0 3 0 6.666666666667E-01 4.991644079379E-01 -3.626641708335E-01 0 1.633327754851E-02 0 0
TRAC 0 3 0 6.666666666667E-01 6.366658393816E-01 -4.625648084389E-01 0 1.633327754851E-02 0 0
TRAC 0 3 0 6.666666666667E-01 7.373179975593E-01 -5.356928818960E-01 0 1.259295452873E-02 0 0
TRAC 0 3 0 6.666666666667E-01 7.952413839840E-01 -5.777766854942E-01 0 5.980352962649E-03 0 0
TRAC 0 3 0 6.666666666667E-01 5.678286526057E-02 -1.747596896061E-01 0 5.980352962649E-03 0 0
TRAC 0 3 0 6.666666666667E-01 1.271841673030E-01 -3.914326178978E-01 0 1.259295452873E-02 0 0
TRAC 0 3 0 6.666666666667E-01 1.906638378581E-01 -5.868029549140E-01 0 1.633327754851E-02 0 0
TRAC 0 3 0 6.666666666667E-01 2.431847111678E-01 -7.484455820538E-01 0 1.633327754851E-02 0 0
TRAC 0 3 0 6.666666666667E-01 2.816304145560E-01 -8.667692904340E-01 0 1.259295452873E-02 0 0
TRAC 0 3 0 6.666666666667E-01 3.037551794214E-01 -9.348623150370E-01 0 5.980352962649E-03 0 0
BLNK Operands for field 3.
TRAC 0 1 0 1 5.678286526057E-02 1.747596896061E-01 0 5.980352962649E-03 0 0
TRAC 0 1 0 1 1.271841673030E-01 3.914326178978E-01 0 1.259295452873E-02 0 0
TRAC 0 1 0 1 1.906638378581E-01 5.868029549140E-01 0 1.633327754851E-02 0 0
TRAC 0 1 0 1 2.431847111678E-01 7.484455820538E-01 0 1.633327754851E-02 0 0
TRAC 0 1 0 1 2.816304145560E-01 8.667692904340E-01 0 1.259295452873E-02 0 0
TRAC 0 1 0 1 3.037551794214E-01 9.348623150370E-01 0 5.980352962649E-03 0 0
TRAC 0 1 0 1 1.486594712380E-01 1.08007428040E-01 0 5.980352962649E-03 0 0
TRAC 0 1 0 1 3.329724728310E-01 2.419186621662E-01 0 1.259295452873E-02 0 0
TRAC 0 1 0 1 4.991644079379E-01 3.626641708335E-01 0 1.633327754851E-02 0 0
TRAC 0 1 0 1 6.366658393816E-01 4.625648084389E-01 0 1.633327754851E-02 0 0
TRAC 0 1 0 1 7.373179975593E-01 5.356928818960E-01 0 1.259295452873E-02 0 0
TRAC 0 1 0 1 7.952413839840E-01 5.777766854942E-01 0 5.980352962649E-03 0 0
TRAC 0 1 0 1 1.837532119440E-01 0 0 5.980352962649E-03 0 0
TRAC 0 1 0 1 4.115766110542E-01 0 0 1.259295452873E-02 0 0
TRAC 0 1 0 1 6.170011401597E-01 0 0 1.633327754851E-02 0 0
TRAC 0 1 0 1 7.869622564276E-01 0 0 1.633327754851E-02 0 0
TRAC 0 1 0 1 9.113751660173E-01 0 0 1.259295452873E-02 0 0
TRAC 0 1 0 1 9.829724091253E-01 0 0 5.980352962649E-03 0 0
TRAC 0 1 0 1 1.486594712380E-01 -1.08007428040E-01 0 5.980352962649E-03 0 0
TRAC 0 1 0 1 3.329724728310E-01 -2.419186621662E-01 0 1.259295452873E-02 0 0
TRAC 0 1 0 1 4.991644079379E-01 -3.626641708335E-01 0 1.633327754851E-02 0 0
TRAC 0 1 0 1 6.366658393816E-01 -4.625648084389E-01 0 1.633327754851E-02 0 0
TRAC 0 1 0 1 7.373179975593E-01 -5.356928818960E-01 0 1.259295452873E-02 0 0
TRAC 0 1 0 1 7.952413839840E-01 -5.777766854942E-01 0 5.980352962649E-03 0 0
TRAC 0 1 0 1 5.678286526057E-02 -1.747596896061E-01 0 5.980352962649E-03 0 0
TRAC 0 1 0 1 1.271841673030E-01 -3.914326178978E-01 0 1.259295452873E-02 0 0
TRAC 0 1 0 1 1.906638378581E-01 -5.868029549140E-01 0 1.633327754851E-02 0 0
TRAC 0 1 0 1 2.431847111678E-01 -7.484455820538E-01 0 1.633327754851E-02 0 0
TRAC 0 1 0 1 2.816304145560E-01 -8.667692904340E-01 0 1.259295452873E-02 0 0
TRAC 0 1 0 1 3.037551794214E-01 -9.348623150370E-01 0 5.980352962649E-03 0 0
TRAC 0 2 0 1 5.678286526057E-02 1.747596896061E-01 0 5.980352962649E-03 0 0
TRAC 0 2 0 1 1.271841673030E-01 3.914326178978E-01 0 1.259295452873E-02 0 0
TRAC 0 2 0 1 1.906638378581E-01 5.868029549140E-01 0 1.633327754851E-02 0 0
TRAC 0 2 0 1 2.431847111678E-01 7.484455820538E-01 0 1.633327754851E-02 0 0
TRAC 0 2 0 1 2.816304145560E-01 8.667692904340E-01 0 1.259295452873E-02 0 0
TRAC 0 2 0 1 3.037551794214E-01 9.348623150370E-01 0 5.980352962649E-03 0 0
TRAC 0 2 0 1 1.486594712380E-01 1.08007428040E-01 0 5.980352962649E-03 0 0
TRAC 0 2 0 1 3.329724728310E-01 2.419186621662E-01 0 1.259295452873E-02 0 0
TRAC 0 2 0 1 4.991644079379E-01 3.626641708335E-01 0 1.633327754851E-02 0 0
TRAC 0 2 0 1 6.366658393816E-01 4.625648084389E-01 0 1.633327754851E-02 0 0
TRAC 0 2 0 1 7.373179975593E-01 5.356928818960E-01 0 1.259295452873E-02 0 0
TRAC 0 2 0 1 7.952413839840E-01 5.777766854942E-01 0 5.980352962649E-03 0 0
TRAC 0 2 0 1 1.837532119440E-01 0 0 5.980352962649E-03 0 0
TRAC 0 2 0 1 4.115766110542E-01 0 0 1.259295452873E-02 0 0
TRAC 0 2 0 1 6.170011401597E-01 0 0 1.633327754851E-02 0 0
TRAC 0 2 0 1 7.869622564276E-01 0 0 1.633327754851E-02 0 0
TRAC 0 2 0 1 9.113751660173E-01 0 0 1.259295452873E-02 0 0
TRAC 0 2 0 1 9.829724091253E-01 0 0 5.980352962649E-03 0 0
TRAC 0 2 0 1 1.486594712380E-01 -1.08007428040E-01 0 5.980352962649E-03 0 0
TRAC 0 2 0 1 3.329724728310E-01 -2.419186621662E-01 0 1.259295452873E-02 0 0
TRAC 0 2 0 1 4.991644079379E-01 -3.626641708335E-01 0 1.633327754851E-02 0 0
TRAC 0 2 0 1 6.366658393816E-01 -4.625648084389E-01 0 1.633327754851E-02 0 0
TRAC 0 2 0 1 7.373179975593E-01 -5.356928818960E-01 0 1.259295452873E-02 0 0
TRAC 0 2 0 1 7.952413839840E-01 -5.777766854942E-01 0 5.980352962649E-03 0 0
TRAC 0 2 0 1 5.678286526057E-02 -1.747596896061E-01 0 5.980352962649E-03 0 0
TRAC 0 2 0 1 1.271841673030E-01 -3.914326178978E-01 0 1.259295452873E-02 0 0
TRAC 0 2 0 1 1.906638378581E-01 -5.868029549140E-01 0 1.633327754851E-02 0 0
TRAC 0 2 0 1 2.431847111678E-01 -7.484455820538E-01 0 1.633327754851E-02 0 0
TRAC 0 2 0 1 2.816304145560E-01 -8.667692904340E-01 0 1.259295452873E-02 0 0
TRAC 0 2 0 1 3.037551794214E-01 -9.348623150370E-01 0 5.980352962649E-03 0 0
TRAC 0 3 0 1 5.678286526057E-02 1.747596896061E-01 0 5.980352962649E-03 0 0
TRAC 0 3 0 1 1.271841673030E-01 3.914326178978E-01 0 1.259295452873E-02 0 0
TRAC 0 3 0 1 1.906638378581E-01 5.868029549140E-01 0 1.633327754851E-02 0 0
TRAC 0 3 0 1 2.431847111678E-01 7.484455820538E-01 0 1.633327754851E-02 0 0
TRAC 0 3 0 1 2.816304145560E-01 8.667692904340E-01 0 1.259295452873E-02 0 0
TRAC 0 3 0 1 3.037551794214E-01 9.348623150370E-01 0 5.980352962649E-03 0 0
TRAC 0 3 0 1 1.486594712380E-01 1.08007428040E-01 0 5.980352962649E-03 0 0
TRAC 0 3 0 1 3.329724728310E-01 2.419186621662E-01 0 1.259295452873E-02 0 0
TRAC 0 3 0 1 4.991644079379E-01 3.626641708335E-01 0 1.633327754851E-02 0 0
TRAC 0 3 0 1 6.366658393816E-01 4.625648084389E-01 0 1.633327754851E-02 0 0
TRAC 0 3 0 1 7.373179975593E-01 5.356928818960E-01 0 1.259295452873E-02 0 0
TRAC 0 3 0 1 7.952413839840E-01 5.777766854942E-01 0 5.980352962649E-03 0 0
TRAC 0 3 0 1 1.837532119440E-01 0 0 5.980352962649E-03 0 0
TRAC 0 3 0 1 4.115766110542E-01 0 0 1.259295452873E-02 0 0
TRAC 0 3 0 1 6.170011401597E-01 0 0 1.633327754851E-02 0 0
TRAC 0 3 0 1 7.869622564276E-01 0 0 1.633327754851E-02 0 0
TRAC 0 3 0 1 9.113751660173E-01 0 0 1.259295452873E-02 0 0
TRAC 0 3 0 1 9.829724091253E-01 0 0 5.980352962649E-03 0 0
TRAC 0 3 0 1 1.486594712380E-01 -1.08007428040E-01 0 5.980352962649E-03 0 0
TRAC 0 3 0 1 3.329724728310E-01 -2.419186621662E-01 0 1.259295452873E-02 0 0
TRAC 0 3 0 1 4.991644079379E-01 -3.626641708335E-01 0 1.633327754851E-02 0 0
TRAC 0 3 0 1 6.366658393816E-01 -4.625648084389E-01 0 1.633327754851E-02 0 0
TRAC 0 3 0 1 7.373179975593E-01 -5.356928818960E-01 0 1.259295452873E-02 0 0
TRAC 0 3 0 1 7.952413839840E-01 -5.777766854942E-01 0 5.980352962649E-03 0 0
TRAC 0 3 0 1 5.678286526057E-02 -1.747596896061E-01 0 5.980352962649E-03 0 0
TRAC 0 3 0 1 1.271841673030E-01 -3.914326178978E-01 0 1.259295452873E-02 0 0
TRAC 0 3 0 1 1.906638378581E-01 -5.868029549140E-01 0 1.633327754851E-02 0 0
TRAC 0 3 0 1 2.431847111678E-01 -7.484455820538E-01 0 1.633327754851E-02 0 0
TRAC 0 3 0 1 2.816304145560E-01 -8.667692904340E-01 0 1.259295452873E-02 0 0
TRAC 0 3 0 1 3.037551794214E-01 -9.348623150370E-01 0 5.980352962649E-03 0 0
TOL TOFF   0   0              0              0   0 0 0 0
MNUM 1 1
MOFF   0   1 "" 0 0 0 1 1 0 0.0 "" 0
