VERS 160720 155 100027
MODE SEQ
NAME 
PFIL 0 0 0
LANG 0
UNIT MM X W X CM MR CPMM
FNUM 3.00E+00 0
ENVD 2.00E+01 1 0
GFAC 0 0
GCAT OHARA-CALDWELL2 
RAIM 0 2 1 1 0 1 0 0 0 1
PUSH -7.501232249194E+01 0 0 0 0 0
SDMA 0 1 0
OMMA 1 1
FTYP 3 0 3 3 0 0 0
ROPD 2
PICB 1
XFLN 0 0 0 0 0 0 0 0 0 0 0 0
YFLN 0 1.40E+01 2.10E+01 0 0 0 0 0 0 0 0 0
FWGN 1 1 1 1 1 1 1 1 1 1 1 1
VDXN 0 0 0 0 0 0 0 0 0 0 0 0
VDYN 0 0 0 0 0 0 0 0 0 0 0 0
VCXN 0 0 0 0 0 0 0 0 0 0 0 0
VCYN 0 0 0 0 0 0 0 0 0 0 0 0
VANN 0 0 0 0 0 0 0 0 0 0 0 0
WAVM 1 4.8613270E-01 1
WAVM 2 5.8756180E-01 1
WAVM 3 6.5627250E-01 1
WAVM 4 5.50E-01 1
WAVM 5 5.50E-01 1
WAVM 6 5.50E-01 1
WAVM 7 5.50E-01 1
WAVM 8 5.50E-01 1
WAVM 9 5.50E-01 1
WAVM 10 5.50E-01 1
WAVM 11 5.50E-01 1
WAVM 12 5.50E-01 1
WAVM 13 5.50E-01 1
WAVM 14 5.50E-01 1
WAVM 15 5.50E-01 1
WAVM 16 5.50E-01 1
WAVM 17 5.50E-01 1
WAVM 18 5.50E-01 1
WAVM 19 5.50E-01 1
WAVM 20 5.50E-01 1
WAVM 21 5.50E-01 1
WAVM 22 5.50E-01 1
WAVM 23 5.50E-01 1
WAVM 24 5.50E-01 1
PWAV 2
POLS 1 0 1 0 0 1 0
GLRS 8 0
GSTD 0 100.000 100.000 100.000 100.000 100.000 100.000 0 1 1 0 0 1 1 1 1 1 1
NSCD 100 500 0 1.00E-03 5 1.00E-06 0 0 0 0 0 0 1000000 0 2
COFN QF "COATING.DAT" "SCATTER_PROFILE.DAT" "ABG_DATA.DAT" "PROFILE.GRD"
COFN COATING.DAT SCATTER_PROFILE.DAT ABG_DATA.DAT PROFILE.GRD
SURF 0
  TYPE STANDARD
  FIMP 

  CURV 0.0 0 0 0 0 ""
  HIDE 0 0 0 0 0 0 0 0 0 0
  MIRR 2 0
  SLAB 13
  DISZ INFINITY
  DIAM 0 0 0 0 1 ""
  MEMA 0 0 0 0 1 ""
  POPS 0 0 0 0 0 0 0 0 1 1 1 1 0 0 0 0
SURF 1
  TYPE STANDARD
  FIMP 

  CURV 5.337425187189721865E-03 0 0 0 0 ""
  HIDE 0 0 0 0 0 0 0 0 0 0
  MIRR 2 0
  SLAB 14
  DISZ 2.37181406069E+01
  GLAS S-FPL51Y 3 0 1.497003244117E+00 8.113816501954E+01 2.790E-02 0 0 0 0 0 
  DIAM 6.237644841622E+01 1 0 0 1 ""
  MEMA 6.237644841622E+01 0 0 0 1 ""
  POPS 0 0 0 0 0 0 0 0 1 1 1 1 0 0 0 0
  FLAP 0 6.237644841622E+01 0
SURF 2
  TYPE STANDARD
  FIMP 

  CURV -4.430418255347319013E-03 0 0 0 0 ""
  HIDE 0 0 0 0 0 0 0 0 0 0
  MIRR 2 0
  SLAB 15
  DISZ 3.612610157759E+00
  DIAM 6.237644841622E+01 1 0 0 1 ""
  MEMA 6.237644841622E+01 0 0 0 1 ""
  POPS 0 0 0 0 0 0 0 0 1 1 1 1 0 0 0 0
  FLAP 0 6.237644841622E+01 0
SURF 3
  TYPE STANDARD
  FIMP 

  CURV -4.667522634822980979E-03 0 0 0 0 ""
  HIDE 0 0 0 0 0 0 0 0 0 0
  MIRR 2 0
  SLAB 1
  DISZ 6.984316188578E+00
  GLAS S-BAH27 3 0 1.516329924761E+00 6.414202197113E+01 -2.40E-03 0 0 0 0 0 
  DIAM 6.075100350635E+01 1 0 0 1 ""
  MEMA 6.075100350635E+01 0 0 0 1 ""
  POPS 0 0 0 0 0 0 0 0 1 1 1 1 0 0 0 0
  FLAP 0 6.075100350635E+01 0
SURF 4
  TYPE STANDARD
  FIMP 

  CURV 1.293097339284129000E-03 0 0 0 0 ""
  HIDE 0 0 0 0 0 0 0 0 0 0
  MIRR 2 0
  SLAB 2
  DISZ 1.181252717127E+00
  DIAM 6.054782289261E+01 1 0 0 1 ""
  MEMA 6.075100350635E+01 0 0 0 1 ""
  POPS 0 0 0 0 0 0 0 0 1 1 1 1 0 0 0 0
  FLAP 0 6.054782289261E+01 0
SURF 5
  TYPE STANDARD
  FIMP 

  CURV 7.135757399799500314E-03 0 0 0 0 ""
  HIDE 0 0 0 0 0 0 0 0 0 0
  MIRR 2 0
  SLAB 3
  DISZ 1.832075668180E+01
  GLAS SUPRASIL 3 0 1.458464439354E+00 6.787820541070E+01 0 0 0 0 0 0 
  DIAM 5.912555859648E+01 1 0 0 1 ""
  MEMA 5.932873921021E+01 0 0 0 1 ""
  POPS 0 0 0 0 0 0 0 0 1 1 1 1 0 0 0 0
  FLAP 0 5.912555859648E+01 0
SURF 6
  TYPE STANDARD
  FIMP 

  CURV 7.480784322024504806E-04 0 0 0 0 ""
  HIDE 0 0 0 0 0 0 0 0 0 0
  MIRR 2 0
  SLAB 4
  DISZ 8.800144304016E+01
  DIAM 5.932873921021E+01 1 0 0 1 ""
  MEMA 5.932873921021E+01 0 0 0 1 ""
  POPS 0 0 0 0 0 0 0 0 1 1 1 1 0 0 0 0
  FLAP 0 5.932873921021E+01 0
SURF 7
  STOP
  TYPE STANDARD
  FIMP 

  CURV -1.235574075454007976E-04 0 0 0 0 ""
  HIDE 0 0 0 0 0 0 0 0 0 0
  MIRR 2 0
  SLAB 5
  DISZ 5.405166578899E+01
  DIAM 2.920279218336E+01 0 0 0 1 ""
  MEMA 2.920279218336E+01 0 0 0 1 ""
  POPS 0 0 0 0 0 0 0 0 1 1 1 1 0 0 0 0
SURF 8
  TYPE STANDARD
  FIMP 

  CURV -1.088572284266618815E-04 0 0 0 0 ""
  HIDE 0 0 0 0 0 0 0 0 0 0
  MIRR 2 0
  SLAB 6
  DISZ 1.696573160447E+01
  DIAM 2.555150690998E+01 0 0 0 1 ""
  MEMA 2.555150690998E+01 0 0 0 1 ""
  POPS 0 0 0 0 0 0 0 0 1 1 1 1 0 0 0 0
SURF 9
  TYPE STANDARD
  FIMP 

  CURV 3.559005958848648118E-03 0 0 0 0 ""
  HIDE 0 0 0 0 0 0 0 0 0 0
  MIRR 2 0
  SLAB 7
  DISZ 9.451742297272E+00
  GLAS S-PHM52 3 0 1.516329924761E+00 6.414202197113E+01 -2.40E-03 0 0 0 0 0 
  DIAM 2.946118899137E+01 1 0 0 1 ""
  MEMA 2.946118899137E+01 0 0 0 1 ""
  POPS 0 0 0 0 0 0 0 0 1 1 1 1 0 0 0 0
  FLAP 0 2.946118899137E+01 0
SURF 10
  TYPE STANDARD
  FIMP 

  CURV 7.502228422310307275E-04 0 0 0 0 ""
  HIDE 0 0 0 0 0 0 0 0 0 0
  MIRR 2 0
  SLAB 8
  DISZ 1.195386010194E+01
  DIAM 2.905482776391E+01 1 0 0 1 ""
  MEMA 2.946118899137E+01 0 0 0 1 ""
  POPS 0 0 0 0 0 0 0 0 1 1 1 1 0 0 0 0
  FLAP 0 2.905482776391E+01 0
SURF 11
  TYPE STANDARD
  FIMP 

  CURV -1.268725613335025017E-02 0 0 0 0 ""
  HIDE 0 0 0 0 0 0 0 0 0 0
  MIRR 2 0
  SLAB 9
  DISZ 2.390253010953E+00
  GLAS S-TIL1 3 0 1.487489934771E+00 7.023625207231E+01 2.20E-03 0 0 0 0 0 
  DIAM 3.027391144631E+01 1 0 0 1 ""
  MEMA 3.311844003858E+01 0 0 0 1 ""
  POPS 0 0 0 0 0 0 0 0 1 1 1 1 0 0 0 0
  FLAP 0 3.027391144631E+01 0
SURF 12
  TYPE STANDARD
  FIMP 

  CURV 8.512513954591259535E-03 0 0 0 0 ""
  HIDE 0 0 0 0 0 0 0 0 0 0
  MIRR 2 0
  SLAB 10
  DISZ 9.069827350825E+00
  GLAS S-LAH55V 3 0 1.516329924761E+00 6.414202197113E+01 -2.40E-03 0 0 0 0 0 
  DIAM 3.291525942484E+01 1 0 0 1 ""
  MEMA 3.311844003858E+01 0 0 0 1 ""
  POPS 0 0 0 0 0 0 0 0 1 1 1 1 0 0 0 0
  FLAP 0 3.291525942484E+01 0
SURF 13
  TYPE STANDARD
  FIMP 

  CURV -1.544906421068788097E-03 0 0 0 0 ""
  HIDE 0 0 0 0 0 0 0 0 0 0
  MIRR 2 0
  SLAB 11
  DISZ 6.615588557729E+01
  MAZH 0 7.00E-01
  DIAM 3.311844003858E+01 1 0 0 1 ""
  MEMA 3.311844003858E+01 0 0 0 1 ""
  POPS 0 0 0 0 0 0 0 0 1 1 1 1 0 0 0 0
  FLAP 0 3.311844003858E+01 0
SURF 14
  TYPE STANDARD
  FIMP 

  CURV 0.0 0 0 0 0 ""
  HIDE 0 0 0 0 0 0 0 0 0 0
  MIRR 2 0
  SLAB 12
  DISZ 0
  DIAM 2.101322434564E+01 0 0 0 1 ""
  MEMA 2.101322434564E+01 0 0 0 1 ""
  POPS 0 0 0 0 0 0 0 0 1 1 1 1 0 0 0 0
CTGT 13 2 0 0 0 0 2.031806137336E+01 9.90E+01 0 0
EFLY 1 14 0 0 0 0 0 0 0 0
OPGT 2 0 0 0 0 0 5.00E+02 9.90E+01 0 0
DMFS 0 0 0 0 0 0 0 0 0 0
BLNK Sequential merit function: RMS spot radius centroid GQ 8 rings 10 arms
BLNK No air or glass constraints.
BLNK Operands for field 1.
TRAC 0 1 0 0 1.409080258581E-01 0 0 1.766771255242E-02 0 0
TRAC 0 1 0 0 3.188522562147E-01 0 0 3.881281245220E-02 0 0
TRAC 0 1 0 0 4.870665201460E-01 0 0 5.475213855953E-02 0 0
TRAC 0 1 0 0 6.389700139695E-01 0 0 6.330026163542E-02 0 0
TRAC 0 1 0 0 7.692316434260E-01 0 0 6.330026163542E-02 0 0
TRAC 0 1 0 0 8.733648750426E-01 0 0 5.475213855953E-02 0 0
TRAC 0 1 0 0 9.478044306221E-01 0 0 3.881281245220E-02 0 0
TRAC 0 1 0 0 9.900226907747E-01 0 0 1.766771255242E-02 0 0
TRAC 0 2 0 0 1.409080258581E-01 0 0 1.766771255242E-02 0 0
TRAC 0 2 0 0 3.188522562147E-01 0 0 3.881281245220E-02 0 0
TRAC 0 2 0 0 4.870665201460E-01 0 0 5.475213855953E-02 0 0
TRAC 0 2 0 0 6.389700139695E-01 0 0 6.330026163542E-02 0 0
TRAC 0 2 0 0 7.692316434260E-01 0 0 6.330026163542E-02 0 0
TRAC 0 2 0 0 8.733648750426E-01 0 0 5.475213855953E-02 0 0
TRAC 0 2 0 0 9.478044306221E-01 0 0 3.881281245220E-02 0 0
TRAC 0 2 0 0 9.900226907747E-01 0 0 1.766771255242E-02 0 0
TRAC 0 3 0 0 1.409080258581E-01 0 0 1.766771255242E-02 0 0
TRAC 0 3 0 0 3.188522562147E-01 0 0 3.881281245220E-02 0 0
TRAC 0 3 0 0 4.870665201460E-01 0 0 5.475213855953E-02 0 0
TRAC 0 3 0 0 6.389700139695E-01 0 0 6.330026163542E-02 0 0
TRAC 0 3 0 0 7.692316434260E-01 0 0 6.330026163542E-02 0 0
TRAC 0 3 0 0 8.733648750426E-01 0 0 5.475213855953E-02 0 0
TRAC 0 3 0 0 9.478044306221E-01 0 0 3.881281245220E-02 0 0
TRAC 0 3 0 0 9.900226907747E-01 0 0 1.766771255242E-02 0 0
BLNK Operands for field 2.
TRAC 0 1 0 6.666666666667E-01 4.354297463398E-02 1.340114961960E-01 0 3.533542510483E-03 0 0
TRAC 0 1 0 6.666666666667E-01 9.853076586513E-02 3.032465160084E-01 0 7.762562490450E-03 0 0
TRAC 0 1 0 6.666666666667E-01 1.505118321145E-01 4.632277878489E-01 0 1.095042771191E-02 0 0
TRAC 0 1 0 6.666666666667E-01 1.974525932126E-01 6.076965955029E-01 0 1.266005232780E-02 0 0
TRAC 0 1 0 6.666666666667E-01 2.377056504296E-01 7.315827670270E-01 0 1.266005232780E-02 0 0
TRAC 0 1 0 6.666666666667E-01 2.698845886783E-01 8.306193555126E-01 0 1.095042771191E-02 0 0
TRAC 0 1 0 6.666666666667E-01 2.928876764061E-01 9.014155799165E-01 0 7.762562490450E-03 0 0
TRAC 0 1 0 6.666666666667E-01 3.059338362662E-01 9.415675313413E-01 0 3.533542510483E-03 0 0
TRAC 0 1 0 6.666666666667E-01 1.139969875630E-01 8.282365952950E-02 0 3.533542510483E-03 0 0
TRAC 0 1 0 6.666666666667E-01 2.579568939725E-01 1.874166538632E-01 0 7.762562490450E-03 0 0
TRAC 0 1 0 6.666666666667E-01 3.940450921848E-01 2.862905174240E-01 0 1.095042771191E-02 0 0
TRAC 0 1 0 6.666666666667E-01 5.169376001973E-01 3.755771508684E-01 0 1.266005232780E-02 0 0
TRAC 0 1 0 6.666666666667E-01 6.223214721426E-01 4.521430156025E-01 0 1.266005232780E-02 0 0
TRAC 0 1 0 6.666666666667E-01 7.065670261996E-01 5.133509934230E-01 0 1.095042771191E-02 0 0
TRAC 0 1 0 6.666666666667E-01 7.667898917171E-01 5.571054663771E-01 0 7.762562490450E-03 0 0
TRAC 0 1 0 6.666666666667E-01 8.009451816535E-01 5.819207370723E-01 0 3.533542510483E-03 0 0
TRAC 0 1 0 6.666666666667E-01 1.409080258581E-01 0 0 3.533542510483E-03 0 0
TRAC 0 1 0 6.666666666667E-01 3.188522562147E-01 0 0 7.762562490450E-03 0 0
TRAC 0 1 0 6.666666666667E-01 4.870665201460E-01 0 0 1.095042771191E-02 0 0
TRAC 0 1 0 6.666666666667E-01 6.389700139695E-01 0 0 1.266005232780E-02 0 0
TRAC 0 1 0 6.666666666667E-01 7.692316434260E-01 0 0 1.266005232780E-02 0 0
TRAC 0 1 0 6.666666666667E-01 8.733648750426E-01 0 0 1.095042771191E-02 0 0
TRAC 0 1 0 6.666666666667E-01 9.478044306221E-01 0 0 7.762562490450E-03 0 0
TRAC 0 1 0 6.666666666667E-01 9.900226907747E-01 0 0 3.533542510483E-03 0 0
TRAC 0 1 0 6.666666666667E-01 1.139969875630E-01 -8.282365952950E-02 0 3.533542510483E-03 0 0
TRAC 0 1 0 6.666666666667E-01 2.579568939725E-01 -1.874166538632E-01 0 7.762562490450E-03 0 0
TRAC 0 1 0 6.666666666667E-01 3.940450921848E-01 -2.862905174240E-01 0 1.095042771191E-02 0 0
TRAC 0 1 0 6.666666666667E-01 5.169376001973E-01 -3.755771508684E-01 0 1.266005232780E-02 0 0
TRAC 0 1 0 6.666666666667E-01 6.223214721426E-01 -4.521430156025E-01 0 1.266005232780E-02 0 0
TRAC 0 1 0 6.666666666667E-01 7.065670261996E-01 -5.133509934230E-01 0 1.095042771191E-02 0 0
TRAC 0 1 0 6.666666666667E-01 7.667898917171E-01 -5.571054663771E-01 0 7.762562490450E-03 0 0
TRAC 0 1 0 6.666666666667E-01 8.009451816535E-01 -5.819207370723E-01 0 3.533542510483E-03 0 0
TRAC 0 1 0 6.666666666667E-01 4.354297463398E-02 -1.340114961960E-01 0 3.533542510483E-03 0 0
TRAC 0 1 0 6.666666666667E-01 9.853076586513E-02 -3.032465160084E-01 0 7.762562490450E-03 0 0
TRAC 0 1 0 6.666666666667E-01 1.505118321145E-01 -4.632277878489E-01 0 1.095042771191E-02 0 0
TRAC 0 1 0 6.666666666667E-01 1.974525932126E-01 -6.076965955029E-01 0 1.266005232780E-02 0 0
TRAC 0 1 0 6.666666666667E-01 2.377056504296E-01 -7.315827670270E-01 0 1.266005232780E-02 0 0
TRAC 0 1 0 6.666666666667E-01 2.698845886783E-01 -8.306193555126E-01 0 1.095042771191E-02 0 0
TRAC 0 1 0 6.666666666667E-01 2.928876764061E-01 -9.014155799165E-01 0 7.762562490450E-03 0 0
TRAC 0 1 0 6.666666666667E-01 3.059338362662E-01 -9.415675313413E-01 0 3.533542510483E-03 0 0
TRAC 0 2 0 6.666666666667E-01 4.354297463398E-02 1.340114961960E-01 0 3.533542510483E-03 0 0
TRAC 0 2 0 6.666666666667E-01 9.853076586513E-02 3.032465160084E-01 0 7.762562490450E-03 0 0
TRAC 0 2 0 6.666666666667E-01 1.505118321145E-01 4.632277878489E-01 0 1.095042771191E-02 0 0
TRAC 0 2 0 6.666666666667E-01 1.974525932126E-01 6.076965955029E-01 0 1.266005232780E-02 0 0
TRAC 0 2 0 6.666666666667E-01 2.377056504296E-01 7.315827670270E-01 0 1.266005232780E-02 0 0
TRAC 0 2 0 6.666666666667E-01 2.698845886783E-01 8.306193555126E-01 0 1.095042771191E-02 0 0
TRAC 0 2 0 6.666666666667E-01 2.928876764061E-01 9.014155799165E-01 0 7.762562490450E-03 0 0
TRAC 0 2 0 6.666666666667E-01 3.059338362662E-01 9.415675313413E-01 0 3.533542510483E-03 0 0
TRAC 0 2 0 6.666666666667E-01 1.139969875630E-01 8.282365952950E-02 0 3.533542510483E-03 0 0
TRAC 0 2 0 6.666666666667E-01 2.579568939725E-01 1.874166538632E-01 0 7.762562490450E-03 0 0
TRAC 0 2 0 6.666666666667E-01 3.940450921848E-01 2.862905174240E-01 0 1.095042771191E-02 0 0
TRAC 0 2 0 6.666666666667E-01 5.169376001973E-01 3.755771508684E-01 0 1.266005232780E-02 0 0
TRAC 0 2 0 6.666666666667E-01 6.223214721426E-01 4.521430156025E-01 0 1.266005232780E-02 0 0
TRAC 0 2 0 6.666666666667E-01 7.065670261996E-01 5.133509934230E-01 0 1.095042771191E-02 0 0
TRAC 0 2 0 6.666666666667E-01 7.667898917171E-01 5.571054663771E-01 0 7.762562490450E-03 0 0
TRAC 0 2 0 6.666666666667E-01 8.009451816535E-01 5.819207370723E-01 0 3.533542510483E-03 0 0
TRAC 0 2 0 6.666666666667E-01 1.409080258581E-01 0 0 3.533542510483E-03 0 0
TRAC 0 2 0 6.666666666667E-01 3.188522562147E-01 0 0 7.762562490450E-03 0 0
TRAC 0 2 0 6.666666666667E-01 4.870665201460E-01 0 0 1.095042771191E-02 0 0
TRAC 0 2 0 6.666666666667E-01 6.389700139695E-01 0 0 1.266005232780E-02 0 0
TRAC 0 2 0 6.666666666667E-01 7.692316434260E-01 0 0 1.266005232780E-02 0 0
TRAC 0 2 0 6.666666666667E-01 8.733648750426E-01 0 0 1.095042771191E-02 0 0
TRAC 0 2 0 6.666666666667E-01 9.478044306221E-01 0 0 7.762562490450E-03 0 0
TRAC 0 2 0 6.666666666667E-01 9.900226907747E-01 0 0 3.533542510483E-03 0 0
TRAC 0 2 0 6.666666666667E-01 1.139969875630E-01 -8.282365952950E-02 0 3.533542510483E-03 0 0
TRAC 0 2 0 6.666666666667E-01 2.579568939725E-01 -1.874166538632E-01 0 7.762562490450E-03 0 0
TRAC 0 2 0 6.666666666667E-01 3.940450921848E-01 -2.862905174240E-01 0 1.095042771191E-02 0 0
TRAC 0 2 0 6.666666666667E-01 5.169376001973E-01 -3.755771508684E-01 0 1.266005232780E-02 0 0
TRAC 0 2 0 6.666666666667E-01 6.223214721426E-01 -4.521430156025E-01 0 1.266005232780E-02 0 0
TRAC 0 2 0 6.666666666667E-01 7.065670261996E-01 -5.133509934230E-01 0 1.095042771191E-02 0 0
TRAC 0 2 0 6.666666666667E-01 7.667898917171E-01 -5.571054663771E-01 0 7.762562490450E-03 0 0
TRAC 0 2 0 6.666666666667E-01 8.009451816535E-01 -5.819207370723E-01 0 3.533542510483E-03 0 0
TRAC 0 2 0 6.666666666667E-01 4.354297463398E-02 -1.340114961960E-01 0 3.533542510483E-03 0 0
TRAC 0 2 0 6.666666666667E-01 9.853076586513E-02 -3.032465160084E-01 0 7.762562490450E-03 0 0
TRAC 0 2 0 6.666666666667E-01 1.505118321145E-01 -4.632277878489E-01 0 1.095042771191E-02 0 0
TRAC 0 2 0 6.666666666667E-01 1.974525932126E-01 -6.076965955029E-01 0 1.266005232780E-02 0 0
TRAC 0 2 0 6.666666666667E-01 2.377056504296E-01 -7.315827670270E-01 0 1.266005232780E-02 0 0
TRAC 0 2 0 6.666666666667E-01 2.698845886783E-01 -8.306193555126E-01 0 1.095042771191E-02 0 0
TRAC 0 2 0 6.666666666667E-01 2.928876764061E-01 -9.014155799165E-01 0 7.762562490450E-03 0 0
TRAC 0 2 0 6.666666666667E-01 3.059338362662E-01 -9.415675313413E-01 0 3.533542510483E-03 0 0
TRAC 0 3 0 6.666666666667E-01 4.354297463398E-02 1.340114961960E-01 0 3.533542510483E-03 0 0
TRAC 0 3 0 6.666666666667E-01 9.853076586513E-02 3.032465160084E-01 0 7.762562490450E-03 0 0
TRAC 0 3 0 6.666666666667E-01 1.505118321145E-01 4.632277878489E-01 0 1.095042771191E-02 0 0
TRAC 0 3 0 6.666666666667E-01 1.974525932126E-01 6.076965955029E-01 0 1.266005232780E-02 0 0
TRAC 0 3 0 6.666666666667E-01 2.377056504296E-01 7.315827670270E-01 0 1.266005232780E-02 0 0
TRAC 0 3 0 6.666666666667E-01 2.698845886783E-01 8.306193555126E-01 0 1.095042771191E-02 0 0
TRAC 0 3 0 6.666666666667E-01 2.928876764061E-01 9.014155799165E-01 0 7.762562490450E-03 0 0
TRAC 0 3 0 6.666666666667E-01 3.059338362662E-01 9.415675313413E-01 0 3.533542510483E-03 0 0
TRAC 0 3 0 6.666666666667E-01 1.139969875630E-01 8.282365952950E-02 0 3.533542510483E-03 0 0
TRAC 0 3 0 6.666666666667E-01 2.579568939725E-01 1.874166538632E-01 0 7.762562490450E-03 0 0
TRAC 0 3 0 6.666666666667E-01 3.940450921848E-01 2.862905174240E-01 0 1.095042771191E-02 0 0
TRAC 0 3 0 6.666666666667E-01 5.169376001973E-01 3.755771508684E-01 0 1.266005232780E-02 0 0
TRAC 0 3 0 6.666666666667E-01 6.223214721426E-01 4.521430156025E-01 0 1.266005232780E-02 0 0
TRAC 0 3 0 6.666666666667E-01 7.065670261996E-01 5.133509934230E-01 0 1.095042771191E-02 0 0
TRAC 0 3 0 6.666666666667E-01 7.667898917171E-01 5.571054663771E-01 0 7.762562490450E-03 0 0
TRAC 0 3 0 6.666666666667E-01 8.009451816535E-01 5.819207370723E-01 0 3.533542510483E-03 0 0
TRAC 0 3 0 6.666666666667E-01 1.409080258581E-01 0 0 3.533542510483E-03 0 0
TRAC 0 3 0 6.666666666667E-01 3.188522562147E-01 0 0 7.762562490450E-03 0 0
TRAC 0 3 0 6.666666666667E-01 4.870665201460E-01 0 0 1.095042771191E-02 0 0
TRAC 0 3 0 6.666666666667E-01 6.389700139695E-01 0 0 1.266005232780E-02 0 0
TRAC 0 3 0 6.666666666667E-01 7.692316434260E-01 0 0 1.266005232780E-02 0 0
TRAC 0 3 0 6.666666666667E-01 8.733648750426E-01 0 0 1.095042771191E-02 0 0
TRAC 0 3 0 6.666666666667E-01 9.478044306221E-01 0 0 7.762562490450E-03 0 0
TRAC 0 3 0 6.666666666667E-01 9.900226907747E-01 0 0 3.533542510483E-03 0 0
TRAC 0 3 0 6.666666666667E-01 1.139969875630E-01 -8.282365952950E-02 0 3.533542510483E-03 0 0
TRAC 0 3 0 6.666666666667E-01 2.579568939725E-01 -1.874166538632E-01 0 7.762562490450E-03 0 0
TRAC 0 3 0 6.666666666667E-01 3.940450921848E-01 -2.862905174240E-01 0 1.095042771191E-02 0 0
TRAC 0 3 0 6.666666666667E-01 5.169376001973E-01 -3.755771508684E-01 0 1.266005232780E-02 0 0
TRAC 0 3 0 6.666666666667E-01 6.223214721426E-01 -4.521430156025E-01 0 1.266005232780E-02 0 0
TRAC 0 3 0 6.666666666667E-01 7.065670261996E-01 -5.133509934230E-01 0 1.095042771191E-02 0 0
TRAC 0 3 0 6.666666666667E-01 7.667898917171E-01 -5.571054663771E-01 0 7.762562490450E-03 0 0
TRAC 0 3 0 6.666666666667E-01 8.009451816535E-01 -5.819207370723E-01 0 3.533542510483E-03 0 0
TRAC 0 3 0 6.666666666667E-01 4.354297463398E-02 -1.340114961960E-01 0 3.533542510483E-03 0 0
TRAC 0 3 0 6.666666666667E-01 9.853076586513E-02 -3.032465160084E-01 0 7.762562490450E-03 0 0
TRAC 0 3 0 6.666666666667E-01 1.505118321145E-01 -4.632277878489E-01 0 1.095042771191E-02 0 0
TRAC 0 3 0 6.666666666667E-01 1.974525932126E-01 -6.076965955029E-01 0 1.266005232780E-02 0 0
TRAC 0 3 0 6.666666666667E-01 2.377056504296E-01 -7.315827670270E-01 0 1.266005232780E-02 0 0
TRAC 0 3 0 6.666666666667E-01 2.698845886783E-01 -8.306193555126E-01 0 1.095042771191E-02 0 0
TRAC 0 3 0 6.666666666667E-01 2.928876764061E-01 -9.014155799165E-01 0 7.762562490450E-03 0 0
TRAC 0 3 0 6.666666666667E-01 3.059338362662E-01 -9.415675313413E-01 0 3.533542510483E-03 0 0
BLNK Operands for field 3.
TRAC 0 1 0 1 4.354297463398E-02 1.340114961960E-01 0 3.533542510483E-03 0 0
TRAC 0 1 0 1 9.853076586513E-02 3.032465160084E-01 0 7.762562490450E-03 0 0
TRAC 0 1 0 1 1.505118321145E-01 4.632277878489E-01 0 1.095042771191E-02 0 0
TRAC 0 1 0 1 1.974525932126E-01 6.076965955029E-01 0 1.266005232780E-02 0 0
TRAC 0 1 0 1 2.377056504296E-01 7.315827670270E-01 0 1.266005232780E-02 0 0
TRAC 0 1 0 1 2.698845886783E-01 8.306193555126E-01 0 1.095042771191E-02 0 0
TRAC 0 1 0 1 2.928876764061E-01 9.014155799165E-01 0 7.762562490450E-03 0 0
TRAC 0 1 0 1 3.059338362662E-01 9.415675313413E-01 0 3.533542510483E-03 0 0
TRAC 0 1 0 1 1.139969875630E-01 8.282365952950E-02 0 3.533542510483E-03 0 0
TRAC 0 1 0 1 2.579568939725E-01 1.874166538632E-01 0 7.762562490450E-03 0 0
TRAC 0 1 0 1 3.940450921848E-01 2.862905174240E-01 0 1.095042771191E-02 0 0
TRAC 0 1 0 1 5.169376001973E-01 3.755771508684E-01 0 1.266005232780E-02 0 0
TRAC 0 1 0 1 6.223214721426E-01 4.521430156025E-01 0 1.266005232780E-02 0 0
TRAC 0 1 0 1 7.065670261996E-01 5.133509934230E-01 0 1.095042771191E-02 0 0
TRAC 0 1 0 1 7.667898917171E-01 5.571054663771E-01 0 7.762562490450E-03 0 0
TRAC 0 1 0 1 8.009451816535E-01 5.819207370723E-01 0 3.533542510483E-03 0 0
TRAC 0 1 0 1 1.409080258581E-01 0 0 3.533542510483E-03 0 0
TRAC 0 1 0 1 3.188522562147E-01 0 0 7.762562490450E-03 0 0
TRAC 0 1 0 1 4.870665201460E-01 0 0 1.095042771191E-02 0 0
TRAC 0 1 0 1 6.389700139695E-01 0 0 1.266005232780E-02 0 0
TRAC 0 1 0 1 7.692316434260E-01 0 0 1.266005232780E-02 0 0
TRAC 0 1 0 1 8.733648750426E-01 0 0 1.095042771191E-02 0 0
TRAC 0 1 0 1 9.478044306221E-01 0 0 7.762562490450E-03 0 0
TRAC 0 1 0 1 9.900226907747E-01 0 0 3.533542510483E-03 0 0
TRAC 0 1 0 1 1.139969875630E-01 -8.282365952950E-02 0 3.533542510483E-03 0 0
TRAC 0 1 0 1 2.579568939725E-01 -1.874166538632E-01 0 7.762562490450E-03 0 0
TRAC 0 1 0 1 3.940450921848E-01 -2.862905174240E-01 0 1.095042771191E-02 0 0
TRAC 0 1 0 1 5.169376001973E-01 -3.755771508684E-01 0 1.266005232780E-02 0 0
TRAC 0 1 0 1 6.223214721426E-01 -4.521430156025E-01 0 1.266005232780E-02 0 0
TRAC 0 1 0 1 7.065670261996E-01 -5.133509934230E-01 0 1.095042771191E-02 0 0
TRAC 0 1 0 1 7.667898917171E-01 -5.571054663771E-01 0 7.762562490450E-03 0 0
TRAC 0 1 0 1 8.009451816535E-01 -5.819207370723E-01 0 3.533542510483E-03 0 0
TRAC 0 1 0 1 4.354297463398E-02 -1.340114961960E-01 0 3.533542510483E-03 0 0
TRAC 0 1 0 1 9.853076586513E-02 -3.032465160084E-01 0 7.762562490450E-03 0 0
TRAC 0 1 0 1 1.505118321145E-01 -4.632277878489E-01 0 1.095042771191E-02 0 0
TRAC 0 1 0 1 1.974525932126E-01 -6.076965955029E-01 0 1.266005232780E-02 0 0
TRAC 0 1 0 1 2.377056504296E-01 -7.315827670270E-01 0 1.266005232780E-02 0 0
TRAC 0 1 0 1 2.698845886783E-01 -8.306193555126E-01 0 1.095042771191E-02 0 0
TRAC 0 1 0 1 2.928876764061E-01 -9.014155799165E-01 0 7.762562490450E-03 0 0
TRAC 0 1 0 1 3.059338362662E-01 -9.415675313413E-01 0 3.533542510483E-03 0 0
TRAC 0 2 0 1 4.354297463398E-02 1.340114961960E-01 0 3.533542510483E-03 0 0
TRAC 0 2 0 1 9.853076586513E-02 3.032465160084E-01 0 7.762562490450E-03 0 0
TRAC 0 2 0 1 1.505118321145E-01 4.632277878489E-01 0 1.095042771191E-02 0 0
TRAC 0 2 0 1 1.974525932126E-01 6.076965955029E-01 0 1.266005232780E-02 0 0
TRAC 0 2 0 1 2.377056504296E-01 7.315827670270E-01 0 1.266005232780E-02 0 0
TRAC 0 2 0 1 2.698845886783E-01 8.306193555126E-01 0 1.095042771191E-02 0 0
TRAC 0 2 0 1 2.928876764061E-01 9.014155799165E-01 0 7.762562490450E-03 0 0
TRAC 0 2 0 1 3.059338362662E-01 9.415675313413E-01 0 3.533542510483E-03 0 0
TRAC 0 2 0 1 1.139969875630E-01 8.282365952950E-02 0 3.533542510483E-03 0 0
TRAC 0 2 0 1 2.579568939725E-01 1.874166538632E-01 0 7.762562490450E-03 0 0
TRAC 0 2 0 1 3.940450921848E-01 2.862905174240E-01 0 1.095042771191E-02 0 0
TRAC 0 2 0 1 5.169376001973E-01 3.755771508684E-01 0 1.266005232780E-02 0 0
TRAC 0 2 0 1 6.223214721426E-01 4.521430156025E-01 0 1.266005232780E-02 0 0
TRAC 0 2 0 1 7.065670261996E-01 5.133509934230E-01 0 1.095042771191E-02 0 0
TRAC 0 2 0 1 7.667898917171E-01 5.571054663771E-01 0 7.762562490450E-03 0 0
TRAC 0 2 0 1 8.009451816535E-01 5.819207370723E-01 0 3.533542510483E-03 0 0
TRAC 0 2 0 1 1.409080258581E-01 0 0 3.533542510483E-03 0 0
TRAC 0 2 0 1 3.188522562147E-01 0 0 7.762562490450E-03 0 0
TRAC 0 2 0 1 4.870665201460E-01 0 0 1.095042771191E-02 0 0
TRAC 0 2 0 1 6.389700139695E-01 0 0 1.266005232780E-02 0 0
TRAC 0 2 0 1 7.692316434260E-01 0 0 1.266005232780E-02 0 0
TRAC 0 2 0 1 8.733648750426E-01 0 0 1.095042771191E-02 0 0
TRAC 0 2 0 1 9.478044306221E-01 0 0 7.762562490450E-03 0 0
TRAC 0 2 0 1 9.900226907747E-01 0 0 3.533542510483E-03 0 0
TRAC 0 2 0 1 1.139969875630E-01 -8.282365952950E-02 0 3.533542510483E-03 0 0
TRAC 0 2 0 1 2.579568939725E-01 -1.874166538632E-01 0 7.762562490450E-03 0 0
TRAC 0 2 0 1 3.940450921848E-01 -2.862905174240E-01 0 1.095042771191E-02 0 0
TRAC 0 2 0 1 5.169376001973E-01 -3.755771508684E-01 0 1.266005232780E-02 0 0
TRAC 0 2 0 1 6.223214721426E-01 -4.521430156025E-01 0 1.266005232780E-02 0 0
TRAC 0 2 0 1 7.065670261996E-01 -5.133509934230E-01 0 1.095042771191E-02 0 0
TRAC 0 2 0 1 7.667898917171E-01 -5.571054663771E-01 0 7.762562490450E-03 0 0
TRAC 0 2 0 1 8.009451816535E-01 -5.819207370723E-01 0 3.533542510483E-03 0 0
TRAC 0 2 0 1 4.354297463398E-02 -1.340114961960E-01 0 3.533542510483E-03 0 0
TRAC 0 2 0 1 9.853076586513E-02 -3.032465160084E-01 0 7.762562490450E-03 0 0
TRAC 0 2 0 1 1.505118321145E-01 -4.632277878489E-01 0 1.095042771191E-02 0 0
TRAC 0 2 0 1 1.974525932126E-01 -6.076965955029E-01 0 1.266005232780E-02 0 0
TRAC 0 2 0 1 2.377056504296E-01 -7.315827670270E-01 0 1.266005232780E-02 0 0
TRAC 0 2 0 1 2.698845886783E-01 -8.306193555126E-01 0 1.095042771191E-02 0 0
TRAC 0 2 0 1 2.928876764061E-01 -9.014155799165E-01 0 7.762562490450E-03 0 0
TRAC 0 2 0 1 3.059338362662E-01 -9.415675313413E-01 0 3.533542510483E-03 0 0
TRAC 0 3 0 1 4.354297463398E-02 1.340114961960E-01 0 3.533542510483E-03 0 0
TRAC 0 3 0 1 9.853076586513E-02 3.032465160084E-01 0 7.762562490450E-03 0 0
TRAC 0 3 0 1 1.505118321145E-01 4.632277878489E-01 0 1.095042771191E-02 0 0
TRAC 0 3 0 1 1.974525932126E-01 6.076965955029E-01 0 1.266005232780E-02 0 0
TRAC 0 3 0 1 2.377056504296E-01 7.315827670270E-01 0 1.266005232780E-02 0 0
TRAC 0 3 0 1 2.698845886783E-01 8.306193555126E-01 0 1.095042771191E-02 0 0
TRAC 0 3 0 1 2.928876764061E-01 9.014155799165E-01 0 7.762562490450E-03 0 0
TRAC 0 3 0 1 3.059338362662E-01 9.415675313413E-01 0 3.533542510483E-03 0 0
TRAC 0 3 0 1 1.139969875630E-01 8.282365952950E-02 0 3.533542510483E-03 0 0
TRAC 0 3 0 1 2.579568939725E-01 1.874166538632E-01 0 7.762562490450E-03 0 0
TRAC 0 3 0 1 3.940450921848E-01 2.862905174240E-01 0 1.095042771191E-02 0 0
TRAC 0 3 0 1 5.169376001973E-01 3.755771508684E-01 0 1.266005232780E-02 0 0
TRAC 0 3 0 1 6.223214721426E-01 4.521430156025E-01 0 1.266005232780E-02 0 0
TRAC 0 3 0 1 7.065670261996E-01 5.133509934230E-01 0 1.095042771191E-02 0 0
TRAC 0 3 0 1 7.667898917171E-01 5.571054663771E-01 0 7.762562490450E-03 0 0
TRAC 0 3 0 1 8.009451816535E-01 5.819207370723E-01 0 3.533542510483E-03 0 0
TRAC 0 3 0 1 1.409080258581E-01 0 0 3.533542510483E-03 0 0
TRAC 0 3 0 1 3.188522562147E-01 0 0 7.762562490450E-03 0 0
TRAC 0 3 0 1 4.870665201460E-01 0 0 1.095042771191E-02 0 0
TRAC 0 3 0 1 6.389700139695E-01 0 0 1.266005232780E-02 0 0
TRAC 0 3 0 1 7.692316434260E-01 0 0 1.266005232780E-02 0 0
TRAC 0 3 0 1 8.733648750426E-01 0 0 1.095042771191E-02 0 0
TRAC 0 3 0 1 9.478044306221E-01 0 0 7.762562490450E-03 0 0
TRAC 0 3 0 1 9.900226907747E-01 0 0 3.533542510483E-03 0 0
TRAC 0 3 0 1 1.139969875630E-01 -8.282365952950E-02 0 3.533542510483E-03 0 0
TRAC 0 3 0 1 2.579568939725E-01 -1.874166538632E-01 0 7.762562490450E-03 0 0
TRAC 0 3 0 1 3.940450921848E-01 -2.862905174240E-01 0 1.095042771191E-02 0 0
TRAC 0 3 0 1 5.169376001973E-01 -3.755771508684E-01 0 1.266005232780E-02 0 0
TRAC 0 3 0 1 6.223214721426E-01 -4.521430156025E-01 0 1.266005232780E-02 0 0
TRAC 0 3 0 1 7.065670261996E-01 -5.133509934230E-01 0 1.095042771191E-02 0 0
TRAC 0 3 0 1 7.667898917171E-01 -5.571054663771E-01 0 7.762562490450E-03 0 0
TRAC 0 3 0 1 8.009451816535E-01 -5.819207370723E-01 0 3.533542510483E-03 0 0
TRAC 0 3 0 1 4.354297463398E-02 -1.340114961960E-01 0 3.533542510483E-03 0 0
TRAC 0 3 0 1 9.853076586513E-02 -3.032465160084E-01 0 7.762562490450E-03 0 0
TRAC 0 3 0 1 1.505118321145E-01 -4.632277878489E-01 0 1.095042771191E-02 0 0
TRAC 0 3 0 1 1.974525932126E-01 -6.076965955029E-01 0 1.266005232780E-02 0 0
TRAC 0 3 0 1 2.377056504296E-01 -7.315827670270E-01 0 1.266005232780E-02 0 0
TRAC 0 3 0 1 2.698845886783E-01 -8.306193555126E-01 0 1.095042771191E-02 0 0
TRAC 0 3 0 1 2.928876764061E-01 -9.014155799165E-01 0 7.762562490450E-03 0 0
TRAC 0 3 0 1 3.059338362662E-01 -9.415675313413E-01 0 3.533542510483E-03 0 0
TOL TOFF   0   0              0              0   0 0 0 0
MNUM 1 1
MOFF   0   1 "" 0 0 0 1 1 0 0.0 "" 0
