VERS 160720 139 100027
MODE SEQ
NAME 
PFIL 0 0 0
LANG 0
UNIT MM X W X CM MR CPMM
FNUM 2.80E+00 0
ENVD 2.00E+01 1 0
GFAC 0 0
GCAT OHARA-CALDWELL2 
RAIM 0 2 1 1 0 1 0 0 0 1
PUSH -2.209197326632E+00 0 0 0 0 0
SDMA 0 1 0
OMMA 1 1
FTYP 3 0 3 3 0 0 0
ROPD 2
PICB 1
XFLN 0 0 0 0 0 0 0 0 0 0 0 0
YFLN 0 1.50E+01 2.10E+01 0 0 0 0 0 0 0 0 0
FWGN 1 1 1 1 1 1 1 1 1 1 1 1
VDXN 0 0 0 0 0 0 0 0 0 0 0 0
VDYN 0 0 0 0 0 0 0 0 0 0 0 0
VCXN 0 0 0 0 0 0 0 0 0 0 0 0
VCYN 0 0 0 0 0 0 0 0 0 0 0 0
VANN 0 0 0 0 0 0 0 0 0 0 0 0
WAVM 1 4.8613270E-01 1
WAVM 2 5.8756180E-01 1
WAVM 3 6.5627250E-01 1
WAVM 4 5.50E-01 1
WAVM 5 5.50E-01 1
WAVM 6 5.50E-01 1
WAVM 7 5.50E-01 1
WAVM 8 5.50E-01 1
WAVM 9 5.50E-01 1
WAVM 10 5.50E-01 1
WAVM 11 5.50E-01 1
WAVM 12 5.50E-01 1
WAVM 13 5.50E-01 1
WAVM 14 5.50E-01 1
WAVM 15 5.50E-01 1
WAVM 16 5.50E-01 1
WAVM 17 5.50E-01 1
WAVM 18 5.50E-01 1
WAVM 19 5.50E-01 1
WAVM 20 5.50E-01 1
WAVM 21 5.50E-01 1
WAVM 22 5.50E-01 1
WAVM 23 5.50E-01 1
WAVM 24 5.50E-01 1
PWAV 2
POLS 1 0 1 0 0 1 0
GLRS 11 0
GSTD 0 100.000 100.000 100.000 100.000 100.000 100.000 0 1 1 0 0 1 1 1 1 1 1
NSCD 100 500 0 1.00E-03 5 1.00E-06 0 0 0 0 0 0 1000000 0 2
COFN QF "COATING.DAT" "SCATTER_PROFILE.DAT" "ABG_DATA.DAT" "PROFILE.GRD"
COFN COATING.DAT SCATTER_PROFILE.DAT ABG_DATA.DAT PROFILE.GRD
SURF 0
  TYPE STANDARD
  FIMP 

  CURV 0.0 0 0 0 0 ""
  HIDE 0 0 0 0 0 0 0 0 0 0
  MIRR 2 0
  SLAB 1
  DISZ INFINITY
  DIAM 0 0 0 0 1 ""
  MEMA 0 0 0 0 1 ""
  POPS 0 0 0 0 0 0 0 0 1 1 1 1 0 0 0 0
SURF 1
  TYPE STANDARD
  FIMP 

  CURV 6.882523862971262618E-02 0 0 0 0 ""
  HIDE 0 0 0 0 0 0 0 0 0 0
  MIRR 2 0
  SLAB 2
  DISZ 2.604088459647E+00
  GLAS S-LAH58 0 0 1.882996976510E+00 4.076510703450E+01 -8.80E-03 0 0 0 0 0 
  DIAM 9.307369512943E+00 1 0 0 1 ""
  MEMA 9.307369512943E+00 0 0 0 1 ""
  POPS 0 0 0 0 0 0 0 0 1 1 1 1 0 0 0 0
  FLAP 0 9.307369512943E+00 0
SURF 2
  TYPE STANDARD
  FIMP 

  CURV 4.709117057499648956E-02 0 0 0 0 ""
  HIDE 0 0 0 0 0 0 0 0 0 0
  MIRR 2 0
  SLAB 2
  DISZ 2.594242687045E-01
  DIAM 8.614267527936E+00 1 0 0 1 ""
  MEMA 9.307369512943E+00 0 0 0 1 ""
  POPS 0 0 0 0 0 0 0 0 1 1 1 1 0 0 0 0
  FLAP 0 8.614267527936E+00 0
SURF 3
  TYPE STANDARD
  FIMP 

  CURV 5.684420443587771127E-02 0 0 0 0 ""
  HIDE 0 0 0 0 0 0 0 0 0 0
  MIRR 2 0
  SLAB 2
  DISZ 2.346931695931E+00
  GLAS S-LAH59 0 0 1.815999839110E+00 4.662056077460E+01 -9.20E-03 0 0 0 0 0 
  DIAM 8.284218963647E+00 1 0 0 1 ""
  MEMA 8.284218963647E+00 0 0 0 1 ""
  POPS 0 0 0 0 0 0 0 0 1 1 1 1 0 0 0 0
  FLAP 0 8.284218963647E+00 0
SURF 4
  TYPE STANDARD
  FIMP 

  CURV 3.064329600545686108E-02 0 0 0 0 ""
  HIDE 0 0 0 0 0 0 0 0 0 0
  MIRR 2 0
  SLAB 2
  DISZ 1.095842230381E+00
  DIAM 7.706633976142E+00 1 0 0 1 ""
  MEMA 8.284218963647E+00 0 0 0 1 ""
  POPS 0 0 0 0 0 0 0 0 1 1 1 1 0 0 0 0
  FLAP 0 7.706633976142E+00 0
SURF 5
  TYPE STANDARD
  FIMP 

  CURV -8.316154875023545889E-03 0 0 0 0 ""
  HIDE 0 0 0 0 0 0 0 0 0 0
  MIRR 2 0
  SLAB 2
  DISZ 1.181596368454E+00
  GLAS S-TIM25 0 0 1.672699810470E+00 3.209920576610E+01 9.30E-03 0 0 0 0 0 
  DIAM 6.964024706493E+00 1 0 0 1 ""
  MEMA 7.162053845066E+00 0 0 0 1 ""
  POPS 0 0 0 0 0 0 0 0 1 1 1 1 0 0 0 0
  FLAP 0 6.964024706493E+00 0
SURF 6
  TYPE STANDARD
  FIMP 

  CURV 7.824515852566438223E-02 0 0 0 0 ""
  HIDE 0 0 0 0 0 0 0 0 0 0
  MIRR 2 0
  SLAB 2
  DISZ 1.960965146079E+00
  DIAM 7.162053845066E+00 1 0 0 1 ""
  MEMA 7.162053845066E+00 0 0 0 1 ""
  POPS 0 0 0 0 0 0 0 0 1 1 1 1 0 0 0 0
  FLAP 0 7.162053845066E+00 0
SURF 7
  TYPE STANDARD
  FIMP 

  CURV 2.610036201249646415E-02 0 0 0 0 ""
  HIDE 0 0 0 0 0 0 0 0 0 0
  MIRR 2 0
  SLAB 2
  DISZ 3.897945617351E+00
  GLAS S-LAH65V 0 0 1.803999499210E+00 4.658343175110E+01 -8.80E-03 0 0 0 0 0 
  DIAM 7.162053845066E+00 1 0 0 1 ""
  MEMA 7.162053845066E+00 0 0 0 1 ""
  POPS 0 0 0 0 0 0 0 0 1 1 1 1 0 0 0 0
  FLAP 0 7.162053845066E+00 0
SURF 8
  TYPE STANDARD
  FIMP 

  CURV -6.922057896750077877E-02 0 0 0 0 ""
  HIDE 0 0 0 0 0 0 0 0 0 0
  MIRR 2 0
  SLAB 2
  DISZ 1.046974465141E+00
  GLAS S-BSM25 0 0 1.658440879130E+00 5.087755368350E+01 -3.10E-03 0 0 0 0 0 
  DIAM 7.162053845066E+00 1 0 0 1 ""
  MEMA 7.162053845066E+00 0 0 0 1 ""
  POPS 0 0 0 0 0 0 0 0 1 1 1 1 0 0 0 0
  FLAP 0 7.162053845066E+00 0
SURF 9
  TYPE STANDARD
  FIMP 

  CURV -1.136546945010242018E-02 0 0 0 0 ""
  HIDE 0 0 0 0 0 0 0 0 0 0
  MIRR 2 0
  SLAB 2
  DISZ 1.168747599572E+00
  DIAM 7.162053845066E+00 1 0 0 1 ""
  MEMA 7.162053845066E+00 0 0 0 1 ""
  POPS 0 0 0 0 0 0 0 0 1 1 1 1 0 0 0 0
  FLAP 0 7.162053845066E+00 0
SURF 10
  STOP
  TYPE STANDARD
  FIMP 

  CURV 0.0 0 0 0 0 ""
  HIDE 0 0 0 0 0 0 0 0 0 0
  MIRR 2 0
  SLAB 2
  DISZ 1.188495292878E+00
  DIAM 6.221415436843E+00 1 0 0 1 ""
  MEMA 6.221415436843E+00 0 0 0 1 ""
  POPS 0 0 0 0 0 0 0 0 1 1 1 1 0 0 0 0
SURF 11
  TYPE STANDARD
  FIMP 

  CURV 0.0 0 0 0 0 ""
  HIDE 0 0 0 0 0 0 0 0 0 0
  MIRR 2 0
  SLAB 2
  DISZ 2.163893060179E+01
  MAZH 0 7.00E-01
  DIAM 6.221415436843E+00 1 0 0 1 ""
  MEMA 6.221415436843E+00 0 0 0 1 ""
  POPS 0 0 0 0 0 0 0 0 1 1 1 1 0 0 0 0
SURF 12
  TYPE STANDARD
  FIMP 

  CURV 0.0 0 0 0 0 ""
  HIDE 0 0 0 0 0 0 0 0 0 0
  MIRR 2 0
  SLAB 3
  DISZ 0
  DIAM 2.11476472988E+01 0 0 0 1 ""
  MEMA 2.11476472988E+01 0 0 0 1 ""
  POPS 0 0 0 0 0 0 0 0 1 1 1 1 0 0 0 0
DMFS 0 0 0 0 0 0 0 0 0 0
BLNK Sequential merit function: RMS spot radius centroid GQ 6 rings 10 arms
BLNK No air or glass constraints.
BLNK Operands for field 1.
TRAC 0 1 0 0 1.837532119440E-01 0 0 2.990176481324E-02 0 0
TRAC 0 1 0 0 4.115766110542E-01 0 0 6.296477264364E-02 0 0
TRAC 0 1 0 0 6.170011401597E-01 0 0 8.166638774255E-02 0 0
TRAC 0 1 0 0 7.869622564276E-01 0 0 8.166638774255E-02 0 0
TRAC 0 1 0 0 9.113751660173E-01 0 0 6.296477264364E-02 0 0
TRAC 0 1 0 0 9.829724091253E-01 0 0 2.990176481324E-02 0 0
TRAC 0 2 0 0 1.837532119440E-01 0 0 2.990176481324E-02 0 0
TRAC 0 2 0 0 4.115766110542E-01 0 0 6.296477264364E-02 0 0
TRAC 0 2 0 0 6.170011401597E-01 0 0 8.166638774255E-02 0 0
TRAC 0 2 0 0 7.869622564276E-01 0 0 8.166638774255E-02 0 0
TRAC 0 2 0 0 9.113751660173E-01 0 0 6.296477264364E-02 0 0
TRAC 0 2 0 0 9.829724091253E-01 0 0 2.990176481324E-02 0 0
TRAC 0 3 0 0 1.837532119440E-01 0 0 2.990176481324E-02 0 0
TRAC 0 3 0 0 4.115766110542E-01 0 0 6.296477264364E-02 0 0
TRAC 0 3 0 0 6.170011401597E-01 0 0 8.166638774255E-02 0 0
TRAC 0 3 0 0 7.869622564276E-01 0 0 8.166638774255E-02 0 0
TRAC 0 3 0 0 9.113751660173E-01 0 0 6.296477264364E-02 0 0
TRAC 0 3 0 0 9.829724091253E-01 0 0 2.990176481324E-02 0 0
BLNK Operands for field 2.
TRAC 0 1 0 5.00E-01 5.678286526057E-02 1.747596896061E-01 0 5.980352962649E-03 0 0
TRAC 0 1 0 5.00E-01 1.271841673030E-01 3.914326178978E-01 0 1.259295452873E-02 0 0
TRAC 0 1 0 5.00E-01 1.906638378581E-01 5.868029549140E-01 0 1.633327754851E-02 0 0
TRAC 0 1 0 5.00E-01 2.431847111678E-01 7.484455820538E-01 0 1.633327754851E-02 0 0
TRAC 0 1 0 5.00E-01 2.816304145560E-01 8.667692904340E-01 0 1.259295452873E-02 0 0
TRAC 0 1 0 5.00E-01 3.037551794214E-01 9.348623150370E-01 0 5.980352962649E-03 0 0
TRAC 0 1 0 5.00E-01 1.486594712380E-01 1.08007428040E-01 0 5.980352962649E-03 0 0
TRAC 0 1 0 5.00E-01 3.329724728310E-01 2.419186621662E-01 0 1.259295452873E-02 0 0
TRAC 0 1 0 5.00E-01 4.991644079379E-01 3.626641708335E-01 0 1.633327754851E-02 0 0
TRAC 0 1 0 5.00E-01 6.366658393816E-01 4.625648084389E-01 0 1.633327754851E-02 0 0
TRAC 0 1 0 5.00E-01 7.373179975593E-01 5.356928818960E-01 0 1.259295452873E-02 0 0
TRAC 0 1 0 5.00E-01 7.952413839840E-01 5.777766854942E-01 0 5.980352962649E-03 0 0
TRAC 0 1 0 5.00E-01 1.837532119440E-01 0 0 5.980352962649E-03 0 0
TRAC 0 1 0 5.00E-01 4.115766110542E-01 0 0 1.259295452873E-02 0 0
TRAC 0 1 0 5.00E-01 6.170011401597E-01 0 0 1.633327754851E-02 0 0
TRAC 0 1 0 5.00E-01 7.869622564276E-01 0 0 1.633327754851E-02 0 0
TRAC 0 1 0 5.00E-01 9.113751660173E-01 0 0 1.259295452873E-02 0 0
TRAC 0 1 0 5.00E-01 9.829724091253E-01 0 0 5.980352962649E-03 0 0
TRAC 0 1 0 5.00E-01 1.486594712380E-01 -1.08007428040E-01 0 5.980352962649E-03 0 0
TRAC 0 1 0 5.00E-01 3.329724728310E-01 -2.419186621662E-01 0 1.259295452873E-02 0 0
TRAC 0 1 0 5.00E-01 4.991644079379E-01 -3.626641708335E-01 0 1.633327754851E-02 0 0
TRAC 0 1 0 5.00E-01 6.366658393816E-01 -4.625648084389E-01 0 1.633327754851E-02 0 0
TRAC 0 1 0 5.00E-01 7.373179975593E-01 -5.356928818960E-01 0 1.259295452873E-02 0 0
TRAC 0 1 0 5.00E-01 7.952413839840E-01 -5.777766854942E-01 0 5.980352962649E-03 0 0
TRAC 0 1 0 5.00E-01 5.678286526057E-02 -1.747596896061E-01 0 5.980352962649E-03 0 0
TRAC 0 1 0 5.00E-01 1.271841673030E-01 -3.914326178978E-01 0 1.259295452873E-02 0 0
TRAC 0 1 0 5.00E-01 1.906638378581E-01 -5.868029549140E-01 0 1.633327754851E-02 0 0
TRAC 0 1 0 5.00E-01 2.431847111678E-01 -7.484455820538E-01 0 1.633327754851E-02 0 0
TRAC 0 1 0 5.00E-01 2.816304145560E-01 -8.667692904340E-01 0 1.259295452873E-02 0 0
TRAC 0 1 0 5.00E-01 3.037551794214E-01 -9.348623150370E-01 0 5.980352962649E-03 0 0
TRAC 0 2 0 5.00E-01 5.678286526057E-02 1.747596896061E-01 0 5.980352962649E-03 0 0
TRAC 0 2 0 5.00E-01 1.271841673030E-01 3.914326178978E-01 0 1.259295452873E-02 0 0
TRAC 0 2 0 5.00E-01 1.906638378581E-01 5.868029549140E-01 0 1.633327754851E-02 0 0
TRAC 0 2 0 5.00E-01 2.431847111678E-01 7.484455820538E-01 0 1.633327754851E-02 0 0
TRAC 0 2 0 5.00E-01 2.816304145560E-01 8.667692904340E-01 0 1.259295452873E-02 0 0
TRAC 0 2 0 5.00E-01 3.037551794214E-01 9.348623150370E-01 0 5.980352962649E-03 0 0
TRAC 0 2 0 5.00E-01 1.486594712380E-01 1.08007428040E-01 0 5.980352962649E-03 0 0
TRAC 0 2 0 5.00E-01 3.329724728310E-01 2.419186621662E-01 0 1.259295452873E-02 0 0
TRAC 0 2 0 5.00E-01 4.991644079379E-01 3.626641708335E-01 0 1.633327754851E-02 0 0
TRAC 0 2 0 5.00E-01 6.366658393816E-01 4.625648084389E-01 0 1.633327754851E-02 0 0
TRAC 0 2 0 5.00E-01 7.373179975593E-01 5.356928818960E-01 0 1.259295452873E-02 0 0
TRAC 0 2 0 5.00E-01 7.952413839840E-01 5.777766854942E-01 0 5.980352962649E-03 0 0
TRAC 0 2 0 5.00E-01 1.837532119440E-01 0 0 5.980352962649E-03 0 0
TRAC 0 2 0 5.00E-01 4.115766110542E-01 0 0 1.259295452873E-02 0 0
TRAC 0 2 0 5.00E-01 6.170011401597E-01 0 0 1.633327754851E-02 0 0
TRAC 0 2 0 5.00E-01 7.869622564276E-01 0 0 1.633327754851E-02 0 0
TRAC 0 2 0 5.00E-01 9.113751660173E-01 0 0 1.259295452873E-02 0 0
TRAC 0 2 0 5.00E-01 9.829724091253E-01 0 0 5.980352962649E-03 0 0
TRAC 0 2 0 5.00E-01 1.486594712380E-01 -1.08007428040E-01 0 5.980352962649E-03 0 0
TRAC 0 2 0 5.00E-01 3.329724728310E-01 -2.419186621662E-01 0 1.259295452873E-02 0 0
TRAC 0 2 0 5.00E-01 4.991644079379E-01 -3.626641708335E-01 0 1.633327754851E-02 0 0
TRAC 0 2 0 5.00E-01 6.366658393816E-01 -4.625648084389E-01 0 1.633327754851E-02 0 0
TRAC 0 2 0 5.00E-01 7.373179975593E-01 -5.356928818960E-01 0 1.259295452873E-02 0 0
TRAC 0 2 0 5.00E-01 7.952413839840E-01 -5.777766854942E-01 0 5.980352962649E-03 0 0
TRAC 0 2 0 5.00E-01 5.678286526057E-02 -1.747596896061E-01 0 5.980352962649E-03 0 0
TRAC 0 2 0 5.00E-01 1.271841673030E-01 -3.914326178978E-01 0 1.259295452873E-02 0 0
TRAC 0 2 0 5.00E-01 1.906638378581E-01 -5.868029549140E-01 0 1.633327754851E-02 0 0
TRAC 0 2 0 5.00E-01 2.431847111678E-01 -7.484455820538E-01 0 1.633327754851E-02 0 0
TRAC 0 2 0 5.00E-01 2.816304145560E-01 -8.667692904340E-01 0 1.259295452873E-02 0 0
TRAC 0 2 0 5.00E-01 3.037551794214E-01 -9.348623150370E-01 0 5.980352962649E-03 0 0
TRAC 0 3 0 5.00E-01 5.678286526057E-02 1.747596896061E-01 0 5.980352962649E-03 0 0
TRAC 0 3 0 5.00E-01 1.271841673030E-01 3.914326178978E-01 0 1.259295452873E-02 0 0
TRAC 0 3 0 5.00E-01 1.906638378581E-01 5.868029549140E-01 0 1.633327754851E-02 0 0
TRAC 0 3 0 5.00E-01 2.431847111678E-01 7.484455820538E-01 0 1.633327754851E-02 0 0
TRAC 0 3 0 5.00E-01 2.816304145560E-01 8.667692904340E-01 0 1.259295452873E-02 0 0
TRAC 0 3 0 5.00E-01 3.037551794214E-01 9.348623150370E-01 0 5.980352962649E-03 0 0
TRAC 0 3 0 5.00E-01 1.486594712380E-01 1.08007428040E-01 0 5.980352962649E-03 0 0
TRAC 0 3 0 5.00E-01 3.329724728310E-01 2.419186621662E-01 0 1.259295452873E-02 0 0
TRAC 0 3 0 5.00E-01 4.991644079379E-01 3.626641708335E-01 0 1.633327754851E-02 0 0
TRAC 0 3 0 5.00E-01 6.366658393816E-01 4.625648084389E-01 0 1.633327754851E-02 0 0
TRAC 0 3 0 5.00E-01 7.373179975593E-01 5.356928818960E-01 0 1.259295452873E-02 0 0
TRAC 0 3 0 5.00E-01 7.952413839840E-01 5.777766854942E-01 0 5.980352962649E-03 0 0
TRAC 0 3 0 5.00E-01 1.837532119440E-01 0 0 5.980352962649E-03 0 0
TRAC 0 3 0 5.00E-01 4.115766110542E-01 0 0 1.259295452873E-02 0 0
TRAC 0 3 0 5.00E-01 6.170011401597E-01 0 0 1.633327754851E-02 0 0
TRAC 0 3 0 5.00E-01 7.869622564276E-01 0 0 1.633327754851E-02 0 0
TRAC 0 3 0 5.00E-01 9.113751660173E-01 0 0 1.259295452873E-02 0 0
TRAC 0 3 0 5.00E-01 9.829724091253E-01 0 0 5.980352962649E-03 0 0
TRAC 0 3 0 5.00E-01 1.486594712380E-01 -1.08007428040E-01 0 5.980352962649E-03 0 0
TRAC 0 3 0 5.00E-01 3.329724728310E-01 -2.419186621662E-01 0 1.259295452873E-02 0 0
TRAC 0 3 0 5.00E-01 4.991644079379E-01 -3.626641708335E-01 0 1.633327754851E-02 0 0
TRAC 0 3 0 5.00E-01 6.366658393816E-01 -4.625648084389E-01 0 1.633327754851E-02 0 0
TRAC 0 3 0 5.00E-01 7.373179975593E-01 -5.356928818960E-01 0 1.259295452873E-02 0 0
TRAC 0 3 0 5.00E-01 7.952413839840E-01 -5.777766854942E-01 0 5.980352962649E-03 0 0
TRAC 0 3 0 5.00E-01 5.678286526057E-02 -1.747596896061E-01 0 5.980352962649E-03 0 0
TRAC 0 3 0 5.00E-01 1.271841673030E-01 -3.914326178978E-01 0 1.259295452873E-02 0 0
TRAC 0 3 0 5.00E-01 1.906638378581E-01 -5.868029549140E-01 0 1.633327754851E-02 0 0
TRAC 0 3 0 5.00E-01 2.431847111678E-01 -7.484455820538E-01 0 1.633327754851E-02 0 0
TRAC 0 3 0 5.00E-01 2.816304145560E-01 -8.667692904340E-01 0 1.259295452873E-02 0 0
TRAC 0 3 0 5.00E-01 3.037551794214E-01 -9.348623150370E-01 0 5.980352962649E-03 0 0
BLNK Operands for field 3.
TRAC 0 1 0 1 5.678286526057E-02 1.747596896061E-01 0 5.980352962649E-03 0 0
TRAC 0 1 0 1 1.271841673030E-01 3.914326178978E-01 0 1.259295452873E-02 0 0
TRAC 0 1 0 1 1.906638378581E-01 5.868029549140E-01 0 1.633327754851E-02 0 0
TRAC 0 1 0 1 2.431847111678E-01 7.484455820538E-01 0 1.633327754851E-02 0 0
TRAC 0 1 0 1 2.816304145560E-01 8.667692904340E-01 0 1.259295452873E-02 0 0
TRAC 0 1 0 1 3.037551794214E-01 9.348623150370E-01 0 5.980352962649E-03 0 0
TRAC 0 1 0 1 1.486594712380E-01 1.08007428040E-01 0 5.980352962649E-03 0 0
TRAC 0 1 0 1 3.329724728310E-01 2.419186621662E-01 0 1.259295452873E-02 0 0
TRAC 0 1 0 1 4.991644079379E-01 3.626641708335E-01 0 1.633327754851E-02 0 0
TRAC 0 1 0 1 6.366658393816E-01 4.625648084389E-01 0 1.633327754851E-02 0 0
TRAC 0 1 0 1 7.373179975593E-01 5.356928818960E-01 0 1.259295452873E-02 0 0
TRAC 0 1 0 1 7.952413839840E-01 5.777766854942E-01 0 5.980352962649E-03 0 0
TRAC 0 1 0 1 1.837532119440E-01 0 0 5.980352962649E-03 0 0
TRAC 0 1 0 1 4.115766110542E-01 0 0 1.259295452873E-02 0 0
TRAC 0 1 0 1 6.170011401597E-01 0 0 1.633327754851E-02 0 0
TRAC 0 1 0 1 7.869622564276E-01 0 0 1.633327754851E-02 0 0
TRAC 0 1 0 1 9.113751660173E-01 0 0 1.259295452873E-02 0 0
TRAC 0 1 0 1 9.829724091253E-01 0 0 5.980352962649E-03 0 0
TRAC 0 1 0 1 1.486594712380E-01 -1.08007428040E-01 0 5.980352962649E-03 0 0
TRAC 0 1 0 1 3.329724728310E-01 -2.419186621662E-01 0 1.259295452873E-02 0 0
TRAC 0 1 0 1 4.991644079379E-01 -3.626641708335E-01 0 1.633327754851E-02 0 0
TRAC 0 1 0 1 6.366658393816E-01 -4.625648084389E-01 0 1.633327754851E-02 0 0
TRAC 0 1 0 1 7.373179975593E-01 -5.356928818960E-01 0 1.259295452873E-02 0 0
TRAC 0 1 0 1 7.952413839840E-01 -5.777766854942E-01 0 5.980352962649E-03 0 0
TRAC 0 1 0 1 5.678286526057E-02 -1.747596896061E-01 0 5.980352962649E-03 0 0
TRAC 0 1 0 1 1.271841673030E-01 -3.914326178978E-01 0 1.259295452873E-02 0 0
TRAC 0 1 0 1 1.906638378581E-01 -5.868029549140E-01 0 1.633327754851E-02 0 0
TRAC 0 1 0 1 2.431847111678E-01 -7.484455820538E-01 0 1.633327754851E-02 0 0
TRAC 0 1 0 1 2.816304145560E-01 -8.667692904340E-01 0 1.259295452873E-02 0 0
TRAC 0 1 0 1 3.037551794214E-01 -9.348623150370E-01 0 5.980352962649E-03 0 0
TRAC 0 2 0 1 5.678286526057E-02 1.747596896061E-01 0 5.980352962649E-03 0 0
TRAC 0 2 0 1 1.271841673030E-01 3.914326178978E-01 0 1.259295452873E-02 0 0
TRAC 0 2 0 1 1.906638378581E-01 5.868029549140E-01 0 1.633327754851E-02 0 0
TRAC 0 2 0 1 2.431847111678E-01 7.484455820538E-01 0 1.633327754851E-02 0 0
TRAC 0 2 0 1 2.816304145560E-01 8.667692904340E-01 0 1.259295452873E-02 0 0
TRAC 0 2 0 1 3.037551794214E-01 9.348623150370E-01 0 5.980352962649E-03 0 0
TRAC 0 2 0 1 1.486594712380E-01 1.08007428040E-01 0 5.980352962649E-03 0 0
TRAC 0 2 0 1 3.329724728310E-01 2.419186621662E-01 0 1.259295452873E-02 0 0
TRAC 0 2 0 1 4.991644079379E-01 3.626641708335E-01 0 1.633327754851E-02 0 0
TRAC 0 2 0 1 6.366658393816E-01 4.625648084389E-01 0 1.633327754851E-02 0 0
TRAC 0 2 0 1 7.373179975593E-01 5.356928818960E-01 0 1.259295452873E-02 0 0
TRAC 0 2 0 1 7.952413839840E-01 5.777766854942E-01 0 5.980352962649E-03 0 0
TRAC 0 2 0 1 1.837532119440E-01 0 0 5.980352962649E-03 0 0
TRAC 0 2 0 1 4.115766110542E-01 0 0 1.259295452873E-02 0 0
TRAC 0 2 0 1 6.170011401597E-01 0 0 1.633327754851E-02 0 0
TRAC 0 2 0 1 7.869622564276E-01 0 0 1.633327754851E-02 0 0
TRAC 0 2 0 1 9.113751660173E-01 0 0 1.259295452873E-02 0 0
TRAC 0 2 0 1 9.829724091253E-01 0 0 5.980352962649E-03 0 0
TRAC 0 2 0 1 1.486594712380E-01 -1.08007428040E-01 0 5.980352962649E-03 0 0
TRAC 0 2 0 1 3.329724728310E-01 -2.419186621662E-01 0 1.259295452873E-02 0 0
TRAC 0 2 0 1 4.991644079379E-01 -3.626641708335E-01 0 1.633327754851E-02 0 0
TRAC 0 2 0 1 6.366658393816E-01 -4.625648084389E-01 0 1.633327754851E-02 0 0
TRAC 0 2 0 1 7.373179975593E-01 -5.356928818960E-01 0 1.259295452873E-02 0 0
TRAC 0 2 0 1 7.952413839840E-01 -5.777766854942E-01 0 5.980352962649E-03 0 0
TRAC 0 2 0 1 5.678286526057E-02 -1.747596896061E-01 0 5.980352962649E-03 0 0
TRAC 0 2 0 1 1.271841673030E-01 -3.914326178978E-01 0 1.259295452873E-02 0 0
TRAC 0 2 0 1 1.906638378581E-01 -5.868029549140E-01 0 1.633327754851E-02 0 0
TRAC 0 2 0 1 2.431847111678E-01 -7.484455820538E-01 0 1.633327754851E-02 0 0
TRAC 0 2 0 1 2.816304145560E-01 -8.667692904340E-01 0 1.259295452873E-02 0 0
TRAC 0 2 0 1 3.037551794214E-01 -9.348623150370E-01 0 5.980352962649E-03 0 0
TRAC 0 3 0 1 5.678286526057E-02 1.747596896061E-01 0 5.980352962649E-03 0 0
TRAC 0 3 0 1 1.271841673030E-01 3.914326178978E-01 0 1.259295452873E-02 0 0
TRAC 0 3 0 1 1.906638378581E-01 5.868029549140E-01 0 1.633327754851E-02 0 0
TRAC 0 3 0 1 2.431847111678E-01 7.484455820538E-01 0 1.633327754851E-02 0 0
TRAC 0 3 0 1 2.816304145560E-01 8.667692904340E-01 0 1.259295452873E-02 0 0
TRAC 0 3 0 1 3.037551794214E-01 9.348623150370E-01 0 5.980352962649E-03 0 0
TRAC 0 3 0 1 1.486594712380E-01 1.08007428040E-01 0 5.980352962649E-03 0 0
TRAC 0 3 0 1 3.329724728310E-01 2.419186621662E-01 0 1.259295452873E-02 0 0
TRAC 0 3 0 1 4.991644079379E-01 3.626641708335E-01 0 1.633327754851E-02 0 0
TRAC 0 3 0 1 6.366658393816E-01 4.625648084389E-01 0 1.633327754851E-02 0 0
TRAC 0 3 0 1 7.373179975593E-01 5.356928818960E-01 0 1.259295452873E-02 0 0
TRAC 0 3 0 1 7.952413839840E-01 5.777766854942E-01 0 5.980352962649E-03 0 0
TRAC 0 3 0 1 1.837532119440E-01 0 0 5.980352962649E-03 0 0
TRAC 0 3 0 1 4.115766110542E-01 0 0 1.259295452873E-02 0 0
TRAC 0 3 0 1 6.170011401597E-01 0 0 1.633327754851E-02 0 0
TRAC 0 3 0 1 7.869622564276E-01 0 0 1.633327754851E-02 0 0
TRAC 0 3 0 1 9.113751660173E-01 0 0 1.259295452873E-02 0 0
TRAC 0 3 0 1 9.829724091253E-01 0 0 5.980352962649E-03 0 0
TRAC 0 3 0 1 1.486594712380E-01 -1.08007428040E-01 0 5.980352962649E-03 0 0
TRAC 0 3 0 1 3.329724728310E-01 -2.419186621662E-01 0 1.259295452873E-02 0 0
TRAC 0 3 0 1 4.991644079379E-01 -3.626641708335E-01 0 1.633327754851E-02 0 0
TRAC 0 3 0 1 6.366658393816E-01 -4.625648084389E-01 0 1.633327754851E-02 0 0
TRAC 0 3 0 1 7.373179975593E-01 -5.356928818960E-01 0 1.259295452873E-02 0 0
TRAC 0 3 0 1 7.952413839840E-01 -5.777766854942E-01 0 5.980352962649E-03 0 0
TRAC 0 3 0 1 5.678286526057E-02 -1.747596896061E-01 0 5.980352962649E-03 0 0
TRAC 0 3 0 1 1.271841673030E-01 -3.914326178978E-01 0 1.259295452873E-02 0 0
TRAC 0 3 0 1 1.906638378581E-01 -5.868029549140E-01 0 1.633327754851E-02 0 0
TRAC 0 3 0 1 2.431847111678E-01 -7.484455820538E-01 0 1.633327754851E-02 0 0
TRAC 0 3 0 1 2.816304145560E-01 -8.667692904340E-01 0 1.259295452873E-02 0 0
TRAC 0 3 0 1 3.037551794214E-01 -9.348623150370E-01 0 5.980352962649E-03 0 0
TOL TOFF   0   0              0              0   0 0 0 0
MNUM 1 1
MOFF   0   1 "" 0 0 0 1 1 0 0.0 "" 0
