VERS 140418 376 26155
MODE SEQ
NAME 
PFIL 0 0 0
UNIT MM X W X CM MR CPMM
FNUM 4.1 0
ENVD 2.0E+1 1 0
GFAC 0 0
GCAT SCHOTT HOYA SUMITA HIKARI
RAIM 0 2 1 1 0 1 0 0 0
PUSH 0 0 0 0 0 0
SDMA 0 1 0
FTYP 0 0 3 3 0 0 0
ROPD 2
PICB 1
XFLN 0 0 0 0 0 0 0 0 0 0 0 0
YFLN 0 3.0 5.0 0 0 0 0 0 0 0 0 0
FWGN 1 1 1 1 1 1 1 1 1 1 1 1
VDXN 0 0 0 0 0 0 0 0 0 0 0 0
VDYN 0 0 0 0 0 0 0 0 0 0 0 0
VCXN 0 0 0 0 0 0 0 0 0 0 0 0
VCYN 0 0 0 0 0 0 0 0 0 0 0 0
VANN 0 0 0 0 0 0 0 0 0 0 0 0
WAVM 1 4.861327E-1 1
WAVM 2 5.875618E-1 1
WAVM 3 6.562725E-1 1
WAVM 4 5.5E-1 1
WAVM 5 5.5E-1 1
WAVM 6 5.5E-1 1
WAVM 7 5.5E-1 1
WAVM 8 5.5E-1 1
WAVM 9 5.5E-1 1
WAVM 10 5.5E-1 1
WAVM 11 5.5E-1 1
WAVM 12 5.5E-1 1
WAVM 13 5.5E-1 1
WAVM 14 5.5E-1 1
WAVM 15 5.5E-1 1
WAVM 16 5.5E-1 1
WAVM 17 5.5E-1 1
WAVM 18 5.5E-1 1
WAVM 19 5.5E-1 1
WAVM 20 5.5E-1 1
WAVM 21 5.5E-1 1
WAVM 22 5.5E-1 1
WAVM 23 5.5E-1 1
WAVM 24 5.5E-1 1
PWAV 2
POLS 1 0 1 0 0 1 0
GLRS 1 0
GSTD 0 100.000 100.000 100.000 100.000 100.000 100.000 0 1 1 0 0 1 1 1 1 1 1
NSCD 100 500 0 1.0E-3 5 1.0E-6 0 0 0 0 0 0 1000000 0 2
COFN QF "COATING.DAT" "SCATTER_PROFILE.DAT" "ABG_DATA.DAT" "PROFILE.GRD"
COFN COATING.DAT SCATTER_PROFILE.DAT ABG_DATA.DAT PROFILE.GRD
SURF 0
  TYPE STANDARD
  CURV 0.0 0 0 0 0 ""
  HIDE 0 0 0 0 0 0 0 0 0 0
  MIRR 2 0
  SLAB 1
  DISZ INFINITY
  DIAM 0 0 0 0 1 ""
  POPS 0 0 0 0 0 0 0 0 1 1 1 1 0 0 0 0

SURF 2
  TYPE STANDARD
  CURV 9.289363678588015800E-003 0 0 0 0 ""
  HIDE 0 0 0 0 0 0 0 0 0 0
  MIRR 2 0
  SLAB 31
  DISZ 2.6
  GLAS FDS90 0 0 1.5 4.0E+1 0 0 0 0 0 0 
  DIAM 3.1E+1 1 0 0 1 ""
  POPS 0 0 0 0 0 0 0 0 1 1 1 1 0 0 0 0
  FLAP 0 3.1E+1 0
SURF 3
  TYPE STANDARD
  CURV 1.243966761208140400E-002 0 0 0 0 ""
  HIDE 0 0 0 0 0 0 0 0 0 0
  MIRR 2 0
  SLAB 30
  DISZ 1.95
  DIAM 3.1E+1 1 0 0 1 ""
  POPS 0 0 0 0 0 0 0 0 1 1 1 1 0 0 0 0
  FLAP 0 3.1E+1 0
SURF 4
  TYPE STANDARD
  CURV 1.191696260457134600E-002 0 0 0 0 ""
  HIDE 0 0 0 0 0 0 0 0 0 0
  MIRR 2 0
  SLAB 29
  DISZ 8.8
  GLAS FCD1 0 0 1.5 4.0E+1 0 0 0 0 0 0 
  DIAM 3.0E+1 1 0 0 1 ""
  POPS 0 0 0 0 0 0 0 0 1 1 1 1 0 0 0 0
  FLAP 0 3.0E+1 0
SURF 5
  TYPE STANDARD
  CURV -2.298565235579951200E-003 0 0 0 0 ""
  HIDE 0 0 0 0 0 0 0 0 0 0
  MIRR 2 0
  SLAB 28
  DISZ 3.0E-1
  DIAM 3.0E+1 1 0 0 1 ""
  POPS 0 0 0 0 0 0 0 0 1 1 1 1 0 0 0 0
  FLAP 0 3.0E+1 0
SURF 6
  TYPE STANDARD
  CURV 9.407337723424271900E-003 0 0 0 0 ""
  HIDE 0 0 0 0 0 0 0 0 0 0
  MIRR 2 0
  SLAB 27
  DISZ 4.7
  GLAS FK5 0 0 1.5 4.0E+1 0 0 0 0 0 0 
  DIAM 2.9E+1 1 0 0 1 ""
  POPS 0 0 0 0 0 0 0 0 1 1 1 1 0 0 0 0
  FLAP 0 2.9E+1 0
SURF 7
  TYPE STANDARD
  CURV 5.530606375683029400E-003 0 0 0 0 ""
  HIDE 0 0 0 0 0 0 0 0 0 0
  MIRR 2 0
  SLAB 26
  DISZ 7.63E+1
  DIAM 2.9E+1 1 0 0 1 ""
  POPS 0 0 0 0 0 0 0 0 1 1 1 1 0 0 0 0
  FLAP 0 2.9E+1 0
SURF 8
  TYPE STANDARD
  CURV -3.470390627168994100E-003 0 0 0 0 ""
  HIDE 0 0 0 0 0 0 0 0 0 0
  MIRR 2 0
  SLAB 25
  DISZ 1.8
  GLAS LASFN7 0 0 1.5 4.0E+1 0 0 0 0 0 0 
  DIAM 1.5E+1 1 0 0 1 ""
  POPS 0 0 0 0 0 0 0 0 1 1 1 1 0 0 0 0
  FLAP 0 1.5E+1 0
SURF 9
  TYPE STANDARD
  CURV 2.867712425797940700E-002 0 0 0 0 ""
  HIDE 0 0 0 0 0 0 0 0 0 0
  MIRR 2 0
  SLAB 24
  DISZ 5.4
  DIAM 1.45E+1 1 0 0 1 ""
  POPS 0 0 0 0 0 0 0 0 1 1 1 1 0 0 0 0
  FLAP 0 1.45E+1 0
SURF 10
  TYPE STANDARD
  CURV -2.024291497975708500E-002 0 0 0 0 ""
  HIDE 0 0 0 0 0 0 0 0 0 0
  MIRR 2 0
  SLAB 23
  DISZ 1.8
  GLAS J-LASF015 0 0 1.5 4.0E+1 0 0 0 0 0 0 
  DIAM 1.5E+1 1 0 0 1 ""
  POPS 0 0 0 0 0 0 0 0 1 1 1 1 0 0 0 0
  FLAP 0 1.5E+1 0
SURF 11
  TYPE STANDARD
  CURV 1.487497582816427900E-002 0 0 0 0 ""
  HIDE 0 0 0 0 0 0 0 0 0 0
  MIRR 2 0
  SLAB 22
  DISZ 4.6
  GLAS FDS90 0 0 1.5 4.0E+1 0 0 0 0 0 0 
  DIAM 1.6E+1 1 0 0 1 ""
  POPS 0 0 0 0 0 0 0 0 1 1 1 1 0 0 0 0
  FLAP 0 1.6E+1 0
SURF 12
  TYPE STANDARD
  CURV -7.027950157777481900E-003 0 0 0 0 ""
  HIDE 0 0 0 0 0 0 0 0 0 0
  MIRR 2 0
  SLAB 21
  DISZ 5.0E-1
  DIAM 1.6E+1 1 0 0 1 ""
  POPS 0 0 0 0 0 0 0 0 1 1 1 1 0 0 0 0
  FLAP 0 1.6E+1 0
SURF 13
  TYPE STANDARD
  CURV 1.587301587301587200E-002 0 0 0 0 ""
  HIDE 0 0 0 0 0 0 0 0 0 0
  MIRR 2 0
  SLAB 20
  DISZ 3.4
  GLAS SFLD6 0 0 1.5 4.0E+1 0 0 0 0 0 0 
  DIAM 1.7E+1 1 0 0 1 ""
  POPS 0 0 0 0 0 0 0 0 1 1 1 1 0 0 0 0
  FLAP 0 1.7E+1 0
SURF 14
  TYPE STANDARD
  CURV 1.022390348635108900E-002 0 0 0 0 ""
  HIDE 0 0 0 0 0 0 0 0 0 0
  MIRR 2 0
  SLAB 19
  DISZ 2.92
  DIAM 1.7E+1 1 0 0 1 ""
  POPS 0 0 0 0 0 0 0 0 1 1 1 1 0 0 0 0
  FLAP 0 1.7E+1 0
SURF 15
  STOP
  TYPE STANDARD
  CURV 0.0 0 0 0 0 ""
  HIDE 0 0 0 0 0 0 0 0 0 0
  MIRR 2 0
  SLAB 2
  DISZ 1
  DIAM 1.662564520125E+1 0 0 0 1 ""
  POPS 0 0 0 0 0 0 0 0 1 1 1 1 0 0 0 0
SURF 16
  TYPE STANDARD
  CURV 1.212121212121212100E-002 0 0 0 0 ""
  HIDE 0 0 0 0 0 0 0 0 0 0
  MIRR 2 0
  SLAB 18
  DISZ 5.6
  GLAS FCD100 0 0 1.5 4.0E+1 0 0 0 0 0 0 
  DIAM 1.77E+1 1 0 0 1 ""
  POPS 0 0 0 0 0 0 0 0 1 1 1 1 0 0 0 0
  FLAP 0 1.77E+1 0
SURF 17
  TYPE STANDARD
  CURV -9.506607091928890100E-003 0 0 0 0 ""
  HIDE 0 0 0 0 0 0 0 0 0 0
  MIRR 2 0
  SLAB 17
  DISZ 2.0E-1
  DIAM 1.8E+1 1 0 0 1 ""
  POPS 0 0 0 0 0 0 0 0 1 1 1 1 0 0 0 0
  FLAP 0 1.8E+1 0
SURF 18
  TYPE STANDARD
  CURV 1.325591876772979100E-002 0 0 0 0 ""
  HIDE 0 0 0 0 0 0 0 0 0 0
  MIRR 2 0
  SLAB 16
  DISZ 4.4
  GLAS LAK18 0 0 1.5 4.0E+1 0 0 0 0 0 0 
  DIAM 1.85E+1 1 0 0 1 ""
  POPS 0 0 0 0 0 0 0 0 1 1 1 1 0 0 0 0
  FLAP 0 1.85E+1 0
SURF 19
  TYPE STANDARD
  CURV -5.905244447593908100E-004 0 0 0 0 ""
  HIDE 0 0 0 0 0 0 0 0 0 0
  MIRR 2 0
  SLAB 15
  DISZ 2.2
  DIAM 1.85E+1 1 0 0 1 ""
  POPS 0 0 0 0 0 0 0 0 1 1 1 1 0 0 0 0
  FLAP 0 1.85E+1 0
SURF 20
  TYPE STANDARD
  CURV -1.428367376089130000E-002 0 0 0 0 ""
  HIDE 0 0 0 0 0 0 0 0 0 0
  MIRR 2 0
  SLAB 14
  DISZ 2.1
  GLAS FDS90 0 0 1.5 4.0E+1 0 0 0 0 0 0 
  DIAM 1.85E+1 1 0 0 1 ""
  POPS 0 0 0 0 0 0 0 0 1 1 1 1 0 0 0 0
  FLAP 0 1.85E+1 0
SURF 21
  TYPE STANDARD
  CURV -2.777777777777777900E-003 0 0 0 0 ""
  HIDE 0 0 0 0 0 0 0 0 0 0
  MIRR 2 0
  SLAB 13
  DISZ 2.69
  DIAM 1.9E+1 1 0 0 1 ""
  POPS 0 0 0 0 0 0 0 0 1 1 1 1 0 0 0 0
  FLAP 0 1.9E+1 0
SURF 22
  TYPE STANDARD
  CURV 2.806151083174317900E-002 0 0 0 0 ""
  HIDE 0 0 0 0 0 0 0 0 0 0
  MIRR 2 0
  SLAB 12
  DISZ 7.3
  GLAS PCD4 0 0 1.5 4.0E+1 0 0 0 0 0 0 
  DIAM 1.9E+1 1 0 0 1 ""
  POPS 0 0 0 0 0 0 0 0 1 1 1 1 0 0 0 0
  FLAP 0 1.9E+1 0
SURF 23
  TYPE STANDARD
  CURV -1.772012829372884500E-003 0 0 0 0 ""
  HIDE 0 0 0 0 0 0 0 0 0 0
  MIRR 2 0
  SLAB 11
  DISZ 6.17
  DIAM 1.9E+1 1 0 0 1 ""
  POPS 0 0 0 0 0 0 0 0 1 1 1 1 0 0 0 0
  FLAP 0 1.9E+1 0
SURF 24
  TYPE STANDARD
  CURV 2.069048279172546200E-003 0 0 0 0 ""
  HIDE 0 0 0 0 0 0 0 0 0 0
  MIRR 2 0
  SLAB 10
  DISZ 3.2
  GLAS E-LAF010 0 0 1.5 4.0E+1 0 0 0 0 0 0 
  DIAM 1.7E+1 1 0 0 1 ""
  POPS 0 0 0 0 0 0 0 0 1 1 1 1 0 0 0 0
  FLAP 0 1.7E+1 0
SURF 25
  TYPE STANDARD
  CURV 3.132832080200501100E-002 0 0 0 0 ""
  HIDE 0 0 0 0 0 0 0 0 0 0
  MIRR 2 0
  SLAB 9
  DISZ 3.7
  DIAM 1.6E+1 1 0 0 1 ""
  POPS 0 0 0 0 0 0 0 0 1 1 1 1 0 0 0 0
  FLAP 0 1.6E+1 0
SURF 26
  TYPE STANDARD
  CURV 1.500728603737114600E-003 0 0 0 0 ""
  HIDE 0 0 0 0 0 0 0 0 0 0
  MIRR 2 0
  SLAB 8
  DISZ 4.2
  GLAS SK14 0 0 1.5 4.0E+1 0 0 0 0 0 0 
  DIAM 1.6E+1 1 0 0 1 ""
  POPS 0 0 0 0 0 0 0 0 1 1 1 1 0 0 0 0
  FLAP 0 1.6E+1 0
SURF 27
  TYPE STANDARD
  CURV -1.804760959410926100E-002 0 0 0 0 ""
  HIDE 0 0 0 0 0 0 0 0 0 0
  MIRR 2 0
  SLAB 7
  DISZ 3.0E-1
  DIAM 1.6E+1 1 0 0 1 ""
  POPS 0 0 0 0 0 0 0 0 1 1 1 1 0 0 0 0
  FLAP 0 1.6E+1 0
SURF 28
  TYPE STANDARD
  CURV 2.439024390243902500E-002 0 0 0 0 ""
  HIDE 0 0 0 0 0 0 0 0 0 0
  MIRR 2 0
  SLAB 6
  DISZ 1.1E+1
  GLAS LLF6 0 0 1.5 4.0E+1 0 0 0 0 0 0 
  DIAM 1.6E+1 1 0 0 1 ""
  POPS 0 0 0 0 0 0 0 0 1 1 1 1 0 0 0 0
  FLAP 0 1.6E+1 0
SURF 29
  TYPE STANDARD
  CURV -4.130012803039689200E-002 0 0 0 0 ""
  HIDE 0 0 0 0 0 0 0 0 0 0
  MIRR 2 0
  SLAB 5
  DISZ 1.6
  GLAS LASFN7 0 0 1.5 4.0E+1 0 0 0 0 0 0 
  DIAM 1.6E+1 1 0 0 1 ""
  POPS 0 0 0 0 0 0 0 0 1 1 1 1 0 0 0 0
  FLAP 0 1.6E+1 0
SURF 30
  TYPE STANDARD
  CURV 9.671366951004855400E-003 0 0 0 0 ""
  HIDE 0 0 0 0 0 0 0 0 0 0
  MIRR 2 0
  SLAB 4
  DISZ 8.982884386198E+1
  MAZH 0 7.0E-1
  DIAM 1.6E+1 1 0 0 1 ""
  POPS 0 0 0 0 0 0 0 0 1 1 1 1 0 0 0 0
  FLAP 0 1.6E+1 0
SURF 31
  TYPE STANDARD
  CURV 0.0 0 0 0 0 ""
  HIDE 0 0 0 0 0 0 0 0 0 0
  MIRR 2 0
  SLAB 3
  DISZ 0
  DIAM 2.18597908413E+1 0 0 0 1 ""
  POPS 0 0 0 0 0 0 0 0 1 1 1 1 0 0 0 0
CONF 1 0 0 0 0 0 0 0 0 0
GLCZ 31 2 0 1 0 0 2.65E+2 1 0 0
CONF 2 0 0 0 0 0 0 0 0 0
GLCZ 31 2 0 1 0 0 2.65E+2 1 0 0
CONF 3 0 0 0 0 0 0 0 0 0
GLCZ 31 2 0 1 0 0 2.65E+2 1 0 0
TOL TOFF   0   0              0              0   0 0 0
MNUM 3 3
YFIE   2   1 1.500000000000E+001 0 0 0 1 1 1.000000000000E+000 0.000000000000E+000 0
YFIE   2   2 6.000000000000E+000 0 0 0 1 1 1.000000000000E+000 0.000000000000E+000 0
YFIE   2   3 3.000000000000E+000 0 0 0 1 1 1.000000000000E+000 0.000000000000E+000 0
YFIE   3   1 1.980000000000E+001 0 0 0 1 1 1.000000000000E+000 0.000000000000E+000 0
YFIE   3   2 9.200000000000E+000 0 0 0 1 1 1.000000000000E+000 0.000000000000E+000 0
YFIE   3   3 5.000000000000E+000 0 0 0 1 1 1.000000000000E+000 0.000000000000E+000 0
THIC   1   1 5.614739844788E+001 1 0 0 1 1 1.000000000000E+000 0.000000000000E+000 0
THIC   1   2 1.991154795638E+001 1 0 0 1 1 1.000000000000E+000 0.000000000000E+000 0
THIC   1   3 4.434459855176E+000 1 0 0 1 1 1.000000000000E+000 0.000000000000E+000 0
THIC   7   1 7.790000000000E+000 0 0 0 1 1 1.000000000000E+000 0.000000000000E+000 0
THIC   7   2 5.182000000000E+001 0 0 0 1 1 1.000000000000E+000 0.000000000000E+000 0
THIC   7   3 7.630000000000E+001 0 0 0 1 1 1.000000000000E+000 0.000000000000E+000 0
THIC  14   1 3.369000000000E+001 0 0 0 1 1 1.000000000000E+000 0.000000000000E+000 0
THIC  14   2 1.860000000000E+001 0 0 0 1 1 1.000000000000E+000 0.000000000000E+000 0
THIC  14   3 2.920000000000E+000 0 0 0 1 1 1.000000000000E+000 0.000000000000E+000 0
THIC  21   1 1.062000000000E+001 0 0 0 1 1 1.000000000000E+000 0.000000000000E+000 0
THIC  21   2 4.500000000000E+000 0 0 0 1 1 1.000000000000E+000 0.000000000000E+000 0
THIC  21   3 2.690000000000E+000 0 0 0 1 1 1.000000000000E+000 0.000000000000E+000 0
MOFF   0   1 "" 0 0 0 1 1 0 0.0 ""
MOFF   0   2 "" 0 0 0 1 1 0 0.0 ""
MOFF   0   3 "" 0 0 0 1 1 0 0.0 ""
MOFF   0   1 "" 0 0 0 1 1 0 0.0 ""
MOFF   0   2 "" 0 0 0 1 1 0 0.0 ""
MOFF   0   3 "" 0 0 0 1 1 0 0.0 ""
